
     RDKit          3D

 50 53  0  0  0  0  0  0  0  0999 V2000
   -8.3125   -0.5897  -21.7052 O   0  0  0  0  0  0  0  0  0  0  0  0
   -7.7591   -1.6459  -21.8961 C   0  0  0  0  0  0  0  0  0  0  0  0
   -6.6752   -2.1887  -20.9820 C   0  0  0  0  0  0  0  0  0  0  0  0
   -6.1072   -1.2231  -19.9858 C   0  0  0  0  0  0  0  0  0  0  0  0
   -6.5231   -1.2497  -18.6825 C   0  0  0  0  0  0  0  0  0  0  0  0
   -6.0315   -0.4781  -17.6750 N   0  0  0  0  0  0  0  0  0  0  0  0
   -5.0780    0.3622  -18.0015 C   0  0  0  0  0  0  0  0  0  0  0  0
   -4.5720    0.5311  -19.3226 C   0  0  0  0  0  0  0  0  0  0  0  0
   -3.5638    1.4845  -19.6329 C   0  0  0  0  0  0  0  0  0  0  0  0
   -3.1092    1.6263  -20.9179 C   0  0  0  0  0  0  0  0  0  0  0  0
   -3.6384    0.8159  -21.9486 C   0  0  0  0  0  0  0  0  0  0  0  0
   -4.6128   -0.1153  -21.6781 C   0  0  0  0  0  0  0  0  0  0  0  0
   -5.1062   -0.2807  -20.3525 C   0  0  0  0  0  0  0  0  0  0  0  0
   -8.1328   -2.5589  -22.9408 N   0  0  0  0  0  0  0  0  0  0  0  0
   -9.5714   -2.7606  -23.0661 C   0  0  0  0  0  0  0  0  0  0  0  0
  -10.3414   -1.7373  -23.9368 C   0  0  0  0  0  0  0  0  0  0  0  0
   -9.4806   -0.6856  -24.6843 C   0  0  0  0  0  0  0  0  0  0  0  0
   -7.9775   -1.0070  -24.8971 C   0  0  0  0  0  0  0  0  0  0  0  0
   -7.4662   -2.2976  -24.2261 C   0  0  2  0  0  0  0  0  0  0  0  0
   -7.5458   -3.4852  -25.2023 C   0  0  0  0  0  0  0  0  0  0  0  0
   -7.0406   -4.7684  -24.5980 C   0  0  0  0  0  0  0  0  0  0  0  0
   -5.6925   -4.8991  -24.2605 C   0  0  0  0  0  0  0  0  0  0  0  0
   -5.2212   -6.0568  -23.6543 C   0  0  0  0  0  0  0  0  0  0  0  0
   -6.0966   -7.1005  -23.3756 C   0  0  0  0  0  0  0  0  0  0  0  0
   -7.4392   -6.9818  -23.7113 C   0  0  0  0  0  0  0  0  0  0  0  0
   -7.9064   -5.8210  -24.3174 C   0  0  0  0  0  0  0  0  0  0  0  0
   -5.9016   -2.6373  -21.6097 H   0  0  0  0  0  0  0  0  0  0  0  0
   -7.1326   -3.0305  -20.4486 H   0  0  0  0  0  0  0  0  0  0  0  0
   -7.3128   -1.9389  -18.3802 H   0  0  0  0  0  0  0  0  0  0  0  0
   -4.6539    0.9629  -17.1949 H   0  0  0  0  0  0  0  0  0  0  0  0
   -3.1749    2.1111  -18.8335 H   0  0  0  0  0  0  0  0  0  0  0  0
   -2.3520    2.3716  -21.1564 H   0  0  0  0  0  0  0  0  0  0  0  0
   -3.2713    0.9338  -22.9639 H   0  0  0  0  0  0  0  0  0  0  0  0
   -5.0092   -0.7319  -22.4811 H   0  0  0  0  0  0  0  0  0  0  0  0
   -9.7256   -3.7751  -23.4600 H   0  0  0  0  0  0  0  0  0  0  0  0
   -9.9859   -2.7794  -22.0522 H   0  0  0  0  0  0  0  0  0  0  0  0
  -10.9599   -2.3084  -24.6440 H   0  0  0  0  0  0  0  0  0  0  0  0
  -11.0374   -1.1846  -23.2914 H   0  0  0  0  0  0  0  0  0  0  0  0
   -9.5264    0.2568  -24.1269 H   0  0  0  0  0  0  0  0  0  0  0  0
   -9.9512   -0.5201  -25.6627 H   0  0  0  0  0  0  0  0  0  0  0  0
   -7.3758   -0.1696  -24.5225 H   0  0  0  0  0  0  0  0  0  0  0  0
   -7.7469   -1.0666  -25.9716 H   0  0  0  0  0  0  0  0  0  0  0  0
   -6.4012   -2.1643  -23.9885 H   0  0  0  0  0  0  0  0  0  0  0  0
   -8.5638   -3.6021  -25.5890 H   0  0  0  0  0  0  0  0  0  0  0  0
   -6.9297   -3.2280  -26.0744 H   0  0  0  0  0  0  0  0  0  0  0  0
   -5.0051   -4.0812  -24.4715 H   0  0  0  0  0  0  0  0  0  0  0  0
   -4.1681   -6.1416  -23.3981 H   0  0  0  0  0  0  0  0  0  0  0  0
   -5.7317   -8.0084  -22.9040 H   0  0  0  0  0  0  0  0  0  0  0  0
   -8.1303   -7.7939  -23.5171 H   0  0  0  0  0  0  0  0  0  0  0  0
   -8.9601   -5.7280  -24.5795 H   0  0  0  0  0  0  0  0  0  0  0  0
  1  2  2  0
  2  3  1  0
  3  4  1  0
  4  5  2  0
  5  6  1  0
  6  7  2  0
  7  8  1  0
  8  9  2  0
  9 10  1  0
 10 11  2  0
 11 12  1  0
 12 13  2  0
  2 14  1  0
 14 15  1  0
 15 16  1  0
 16 17  1  0
 17 18  1  0
 18 19  1  0
 19 20  1  0
 20 21  1  0
 21 22  2  0
 22 23  1  0
 23 24  2  0
 24 25  1  0
 25 26  2  0
 13  4  1  0
 19 14  1  0
 26 21  1  0
 13  8  1  0
  3 27  1  0
  3 28  1  0
  5 29  1  0
  7 30  1  0
  9 31  1  0
 10 32  1  0
 11 33  1  0
 12 34  1  0
 15 35  1  0
 15 36  1  0
 16 37  1  0
 16 38  1  0
 17 39  1  0
 17 40  1  0
 18 41  1  0
 18 42  1  0
 19 43  1  1
 20 44  1  0
 20 45  1  0
 22 46  1  0
 23 47  1  0
 24 48  1  0
 25 49  1  0
 26 50  1  0
M  END
>  <RMSD>  (1) 
0.04263714595726119

$$$$

     RDKit          3D

 59 63  0  0  0  0  0  0  0  0999 V2000
   -6.8769    2.7400  -22.2044 C   0  0  0  0  0  0  0  0  0  0  0  0
   -6.4743    2.6672  -23.6740 C   0  0  0  0  0  0  0  0  0  0  0  0
   -7.1418    1.4897  -24.2042 N   0  0  0  0  0  0  0  0  0  0  0  0
   -6.7378    0.9167  -25.3579 C   0  0  0  0  0  0  0  0  0  0  0  0
   -5.9163    1.4174  -26.1126 O   0  0  0  0  0  0  0  0  0  0  0  0
   -7.3804   -0.4299  -25.7254 C   0  0  0  0  0  0  0  0  0  0  0  0
   -8.1465   -1.1056  -24.6875 N   0  0  0  0  0  0  0  0  0  0  0  0
   -7.5730   -2.2999  -24.0867 C   0  0  0  0  0  0  0  0  0  0  0  0
   -8.2158   -2.6326  -22.7138 C   0  0  2  0  0  0  0  0  0  0  0  0
   -7.8389   -1.5249  -21.6982 C   0  0  0  0  0  0  0  0  0  0  0  0
   -8.3285   -0.4147  -21.5853 O   0  0  0  0  0  0  0  0  0  0  0  0
   -6.7905   -1.9890  -20.9410 N   0  0  0  0  0  0  0  0  0  0  0  0
   -6.1564   -1.1621  -19.9850 C   0  0  0  0  0  0  0  0  0  0  0  0
   -6.5476   -1.2375  -18.6737 C   0  0  0  0  0  0  0  0  0  0  0  0
   -6.0238   -0.4902  -17.6732 N   0  0  0  0  0  0  0  0  0  0  0  0
   -5.0801    0.3617  -18.0076 C   0  0  0  0  0  0  0  0  0  0  0  0
   -4.5822    0.5408  -19.3307 C   0  0  0  0  0  0  0  0  0  0  0  0
   -3.5626    1.4847  -19.6320 C   0  0  0  0  0  0  0  0  0  0  0  0
   -3.1039    1.6196  -20.9150 C   0  0  0  0  0  0  0  0  0  0  0  0
   -3.6352    0.8282  -21.9572 C   0  0  0  0  0  0  0  0  0  0  0  0
   -4.6258   -0.0896  -21.6941 C   0  0  0  0  0  0  0  0  0  0  0  0
   -5.1257   -0.2527  -20.3679 C   0  0  0  0  0  0  0  0  0  0  0  0
   -6.3155   -3.3016  -21.3313 C   0  0  0  0  0  0  0  0  0  0  0  0
   -7.5382   -3.8720  -22.0612 C   0  0  2  0  0  0  0  0  0  0  0  0
   -7.2307   -5.0493  -22.9766 C   0  0  0  0  0  0  0  0  0  0  0  0
   -9.7156   -2.7135  -22.9145 C   0  0  0  0  0  0  0  0  0  0  0  0
  -10.5430   -3.5942  -22.2026 C   0  0  0  0  0  0  0  0  0  0  0  0
  -11.9162   -3.5272  -22.3644 C   0  0  0  0  0  0  0  0  0  0  0  0
  -12.9303   -4.6170  -21.4646 Cl  0  0  0  0  0  0  0  0  0  0  0  0
  -12.5167   -2.6037  -23.2188 C   0  0  0  0  0  0  0  0  0  0  0  0
  -11.7071   -1.7454  -23.9317 C   0  0  0  0  0  0  0  0  0  0  0  0
  -10.3196   -1.8082  -23.7992 C   0  0  0  0  0  0  0  0  0  0  0  0
   -9.5047   -0.8954  -24.6724 C   0  0  0  0  0  0  0  0  0  0  0  0
  -10.0235   -0.0173  -25.3427 O   0  0  0  0  0  0  0  0  0  0  0  0
   -7.9593    2.9113  -22.1691 H   0  0  0  0  0  0  0  0  0  0  0  0
   -6.3705    3.5176  -21.6148 H   0  0  0  0  0  0  0  0  0  0  0  0
   -6.6851    1.7560  -21.7482 H   0  0  0  0  0  0  0  0  0  0  0  0
   -6.7560    3.5565  -24.2512 H   0  0  0  0  0  0  0  0  0  0  0  0
   -5.3962    2.5448  -23.8256 H   0  0  0  0  0  0  0  0  0  0  0  0
   -7.6334    0.9183  -23.5242 H   0  0  0  0  0  0  0  0  0  0  0  0
   -6.5543   -1.0702  -26.0552 H   0  0  0  0  0  0  0  0  0  0  0  0
   -8.0315   -0.2473  -26.5905 H   0  0  0  0  0  0  0  0  0  0  0  0
   -6.4984   -2.1300  -23.9661 H   0  0  0  0  0  0  0  0  0  0  0  0
   -7.7097   -3.1592  -24.7587 H   0  0  0  0  0  0  0  0  0  0  0  0
   -7.3361   -1.9362  -18.4005 H   0  0  0  0  0  0  0  0  0  0  0  0
   -4.6473    0.9639  -17.2100 H   0  0  0  0  0  0  0  0  0  0  0  0
   -3.1612    2.0913  -18.8238 H   0  0  0  0  0  0  0  0  0  0  0  0
   -2.3211    2.3382  -21.1392 H   0  0  0  0  0  0  0  0  0  0  0  0
   -3.2627    0.9479  -22.9731 H   0  0  0  0  0  0  0  0  0  0  0  0
   -5.0415   -0.6811  -22.5063 H   0  0  0  0  0  0  0  0  0  0  0  0
   -6.0401   -3.8834  -20.4480 H   0  0  0  0  0  0  0  0  0  0  0  0
   -5.4305   -3.2568  -21.9925 H   0  0  0  0  0  0  0  0  0  0  0  0
   -8.2119   -4.2089  -21.2686 H   0  0  0  0  0  0  0  0  0  0  0  0
   -8.1212   -5.3611  -23.5324 H   0  0  0  0  0  0  0  0  0  0  0  0
   -6.4604   -4.7884  -23.7108 H   0  0  0  0  0  0  0  0  0  0  0  0
   -6.8697   -5.9091  -22.4019 H   0  0  0  0  0  0  0  0  0  0  0  0
  -10.1456   -4.3416  -21.5229 H   0  0  0  0  0  0  0  0  0  0  0  0
  -13.5972   -2.5681  -23.3173 H   0  0  0  0  0  0  0  0  0  0  0  0
  -12.1253   -1.0132  -24.6132 H   0  0  0  0  0  0  0  0  0  0  0  0
  1  2  1  0
  2  3  1  0
  3  4  1  0
  4  5  2  0
  4  6  1  0
  6  7  1  0
  7  8  1  0
  9  8  1  6
  9 10  1  0
 10 11  2  0
 10 12  1  0
 12 13  1  0
 13 14  2  0
 14 15  1  0
 15 16  2  0
 16 17  1  0
 17 18  2  0
 18 19  1  0
 19 20  2  0
 20 21  1  0
 21 22  2  0
 12 23  1  0
 23 24  1  0
 24 25  1  0
  9 26  1  0
 26 27  2  0
 27 28  1  0
 28 29  1  0
 28 30  2  0
 30 31  1  0
 31 32  2  0
 32 33  1  0
 33 34  2  0
 33  7  1  0
 24  9  1  0
 32 26  1  0
 22 13  1  0
 22 17  1  0
  1 35  1  0
  1 36  1  0
  1 37  1  0
  2 38  1  0
  2 39  1  0
  3 40  1  0
  6 41  1  0
  6 42  1  0
  8 43  1  0
  8 44  1  0
 14 45  1  0
 16 46  1  0
 18 47  1  0
 19 48  1  0
 20 49  1  0
 21 50  1  0
 23 51  1  0
 23 52  1  0
 24 53  1  1
 25 54  1  0
 25 55  1  0
 25 56  1  0
 27 57  1  0
 30 58  1  0
 31 59  1  0
M  END
>  <RMSD>  (2) 
0.06186514050902834

$$$$

     RDKit          3D

 66 70  0  0  0  0  0  0  0  0999 V2000
   -6.7626    2.6526  -23.2209 C   0  0  0  0  0  0  0  0  0  0  0  0
   -7.3112    1.4752  -23.8585 N   0  0  0  0  0  0  0  0  0  0  0  0
   -6.8326    1.0653  -25.0526 C   0  0  0  0  0  0  0  0  0  0  0  0
   -6.0161    1.6983  -25.7053 O   0  0  0  0  0  0  0  0  0  0  0  0
   -7.3278   -0.2854  -25.5808 C   0  0  0  0  0  0  0  0  0  0  0  0
   -8.1462   -1.0807  -24.6886 N   0  0  0  0  0  0  0  0  0  0  0  0
   -7.5820   -2.2899  -24.1209 C   0  0  0  0  0  0  0  0  0  0  0  0
   -8.2306   -2.6354  -22.7549 C   0  0  2  0  0  0  0  0  0  0  0  0
   -7.8763   -1.5343  -21.7256 C   0  0  0  0  0  0  0  0  0  0  0  0
   -8.4077   -0.4496  -21.5918 O   0  0  0  0  0  0  0  0  0  0  0  0
   -6.8122   -1.9816  -20.9708 N   0  0  0  0  0  0  0  0  0  0  0  0
   -6.1757   -1.1559  -20.0041 C   0  0  0  0  0  0  0  0  0  0  0  0
   -6.5468   -1.2430  -18.6874 C   0  0  0  0  0  0  0  0  0  0  0  0
   -6.0146   -0.5009  -17.6826 N   0  0  0  0  0  0  0  0  0  0  0  0
   -5.0748    0.3595  -18.0001 C   0  0  0  0  0  0  0  0  0  0  0  0
   -4.5717    0.5407  -19.3217 C   0  0  0  0  0  0  0  0  0  0  0  0
   -3.5537    1.4877  -19.6297 C   0  0  0  0  0  0  0  0  0  0  0  0
   -3.0982    1.6214  -20.9139 C   0  0  0  0  0  0  0  0  0  0  0  0
   -3.6271    0.8176  -21.9514 C   0  0  0  0  0  0  0  0  0  0  0  0
   -4.6206   -0.0908  -21.6827 C   0  0  0  0  0  0  0  0  0  0  0  0
   -5.1274   -0.2480  -20.3617 C   0  0  0  0  0  0  0  0  0  0  0  0
   -6.3466   -3.3043  -21.3515 C   0  0  0  0  0  0  0  0  0  0  0  0
   -7.5628   -3.8707  -22.1021 C   0  0  2  0  0  0  0  0  0  0  0  0
   -7.2633   -5.0432  -23.0331 C   0  0  0  0  0  0  0  0  0  0  0  0
   -6.9218   -6.1905  -22.2900 O   0  0  0  0  0  0  0  0  0  0  0  0
   -5.5457   -6.5387  -22.2898 C   0  0  0  0  0  0  0  0  0  0  0  0
   -5.2178   -7.4236  -23.4830 C   0  0  0  0  0  0  0  0  0  0  0  0
   -5.2449   -7.2304  -20.9735 C   0  0  0  0  0  0  0  0  0  0  0  0
   -9.7244   -2.7146  -22.9789 C   0  0  0  0  0  0  0  0  0  0  0  0
  -10.5500   -3.5895  -22.2619 C   0  0  0  0  0  0  0  0  0  0  0  0
  -11.9247   -3.5086  -22.3986 C   0  0  0  0  0  0  0  0  0  0  0  0
  -12.9263   -4.5697  -21.4480 Cl  0  0  0  0  0  0  0  0  0  0  0  0
  -12.5238   -2.5822  -23.2553 C   0  0  0  0  0  0  0  0  0  0  0  0
  -11.7104   -1.7298  -23.9809 C   0  0  0  0  0  0  0  0  0  0  0  0
  -10.3221   -1.7920  -23.8534 C   0  0  0  0  0  0  0  0  0  0  0  0
   -9.4916   -0.8357  -24.6617 C   0  0  0  0  0  0  0  0  0  0  0  0
   -9.9736    0.1243  -25.2468 O   0  0  0  0  0  0  0  0  0  0  0  0
   -6.8666    3.5433  -23.8491 H   0  0  0  0  0  0  0  0  0  0  0  0
   -7.2927    2.8069  -22.2785 H   0  0  0  0  0  0  0  0  0  0  0  0
   -5.6991    2.5099  -22.9991 H   0  0  0  0  0  0  0  0  0  0  0  0
   -8.1040    1.0220  -23.4279 H   0  0  0  0  0  0  0  0  0  0  0  0
   -6.4313   -0.8598  -25.8358 H   0  0  0  0  0  0  0  0  0  0  0  0
   -7.8649   -0.1086  -26.5189 H   0  0  0  0  0  0  0  0  0  0  0  0
   -7.7173   -3.1292  -24.8202 H   0  0  0  0  0  0  0  0  0  0  0  0
   -6.5066   -2.1322  -23.9846 H   0  0  0  0  0  0  0  0  0  0  0  0
   -7.3306   -1.9366  -18.3904 H   0  0  0  0  0  0  0  0  0  0  0  0
   -4.6568    0.9648  -17.1926 H   0  0  0  0  0  0  0  0  0  0  0  0
   -3.1544    2.1092  -18.8293 H   0  0  0  0  0  0  0  0  0  0  0  0
   -2.3300    2.3515  -21.1556 H   0  0  0  0  0  0  0  0  0  0  0  0
   -3.2750    0.9425  -22.9736 H   0  0  0  0  0  0  0  0  0  0  0  0
   -5.0341   -0.7002  -22.4826 H   0  0  0  0  0  0  0  0  0  0  0  0
   -6.0795   -3.8869  -20.4653 H   0  0  0  0  0  0  0  0  0  0  0  0
   -5.4556   -3.2736  -22.0051 H   0  0  0  0  0  0  0  0  0  0  0  0
   -8.2286   -4.2564  -21.3309 H   0  0  0  0  0  0  0  0  0  0  0  0
   -8.1516   -5.2755  -23.6411 H   0  0  0  0  0  0  0  0  0  0  0  0
   -6.4543   -4.7680  -23.7285 H   0  0  0  0  0  0  0  0  0  0  0  0
   -4.9464   -5.6193  -22.3475 H   0  0  0  0  0  0  0  0  0  0  0  0
   -4.1594   -7.7036  -23.4735 H   0  0  0  0  0  0  0  0  0  0  0  0
   -5.4308   -6.9165  -24.4285 H   0  0  0  0  0  0  0  0  0  0  0  0
   -5.8216   -8.3347  -23.4454 H   0  0  0  0  0  0  0  0  0  0  0  0
   -4.1809   -7.4865  -20.9156 H   0  0  0  0  0  0  0  0  0  0  0  0
   -5.4887   -6.5794  -20.1281 H   0  0  0  0  0  0  0  0  0  0  0  0
   -5.8262   -8.1527  -20.8773 H   0  0  0  0  0  0  0  0  0  0  0  0
  -10.1318   -4.3365  -21.5941 H   0  0  0  0  0  0  0  0  0  0  0  0
  -13.6075   -2.5331  -23.3302 H   0  0  0  0  0  0  0  0  0  0  0  0
  -12.1416   -0.9986  -24.6571 H   0  0  0  0  0  0  0  0  0  0  0  0
  1  2  1  0
  2  3  1  0
  3  4  2  0
  3  5  1  0
  5  6  1  0
  6  7  1  0
  8  7  1  6
  8  9  1  0
  9 10  2  0
  9 11  1  0
 11 12  1  0
 12 13  2  0
 13 14  1  0
 14 15  2  0
 15 16  1  0
 16 17  2  0
 17 18  1  0
 18 19  2  0
 19 20  1  0
 20 21  2  0
 11 22  1  0
 22 23  1  0
 23 24  1  0
 24 25  1  0
 25 26  1  0
 26 27  1  0
 26 28  1  0
  8 29  1  0
 29 30  2  0
 30 31  1  0
 31 32  1  0
 31 33  2  0
 33 34  1  0
 34 35  2  0
 35 36  1  0
 36 37  2  0
 36  6  1  0
 23  8  1  0
 35 29  1  0
 21 12  1  0
 21 16  1  0
  1 38  1  0
  1 39  1  0
  1 40  1  0
  2 41  1  0
  5 42  1  0
  5 43  1  0
  7 44  1  0
  7 45  1  0
 13 46  1  0
 15 47  1  0
 17 48  1  0
 18 49  1  0
 19 50  1  0
 20 51  1  0
 22 52  1  0
 22 53  1  0
 23 54  1  1
 24 55  1  0
 24 56  1  0
 26 57  1  0
 27 58  1  0
 27 59  1  0
 27 60  1  0
 28 61  1  0
 28 62  1  0
 28 63  1  0
 30 64  1  0
 33 65  1  0
 34 66  1  0
M  END
>  <RMSD>  (3) 
0.05689016731596934

$$$$

     RDKit          3D

 64 68  0  0  0  0  0  0  0  0999 V2000
   -6.7701    2.6294  -23.2063 C   0  0  0  0  0  0  0  0  0  0  0  0
   -7.3386    1.4522  -23.8365 N   0  0  0  0  0  0  0  0  0  0  0  0
   -6.8464    1.0268  -25.0222 C   0  0  0  0  0  0  0  0  0  0  0  0
   -6.0267    1.6563  -25.6747 O   0  0  0  0  0  0  0  0  0  0  0  0
   -7.3562   -0.3126  -25.5685 C   0  0  0  0  0  0  0  0  0  0  0  0
   -8.1661   -1.1266  -24.6901 N   0  0  0  0  0  0  0  0  0  0  0  0
   -7.5809   -2.3159  -24.0964 C   0  0  0  0  0  0  0  0  0  0  0  0
   -8.2182   -2.6474  -22.7243 C   0  0  2  0  0  0  0  0  0  0  0  0
   -7.8595   -1.5369  -21.7033 C   0  0  0  0  0  0  0  0  0  0  0  0
   -8.3801   -0.4465  -21.5696 O   0  0  0  0  0  0  0  0  0  0  0  0
   -6.7958   -1.9825  -20.9533 N   0  0  0  0  0  0  0  0  0  0  0  0
   -6.1663   -1.1557  -19.9920 C   0  0  0  0  0  0  0  0  0  0  0  0
   -6.5462   -1.2406  -18.6783 C   0  0  0  0  0  0  0  0  0  0  0  0
   -6.0194   -0.4929  -17.6748 N   0  0  0  0  0  0  0  0  0  0  0  0
   -5.0784    0.3624  -18.0036 C   0  0  0  0  0  0  0  0  0  0  0  0
   -4.5830    0.5432  -19.3292 C   0  0  0  0  0  0  0  0  0  0  0  0
   -3.5624    1.4821  -19.6345 C   0  0  0  0  0  0  0  0  0  0  0  0
   -3.0988    1.6175  -20.9145 C   0  0  0  0  0  0  0  0  0  0  0  0
   -3.6286    0.8205  -21.9540 C   0  0  0  0  0  0  0  0  0  0  0  0
   -4.6256   -0.0855  -21.6892 C   0  0  0  0  0  0  0  0  0  0  0  0
   -5.1334   -0.2429  -20.3668 C   0  0  0  0  0  0  0  0  0  0  0  0
   -6.3254   -3.3012  -21.3120 C   0  0  0  0  0  0  0  0  0  0  0  0
   -7.5398   -3.8790  -22.0585 C   0  0  2  0  0  0  0  0  0  0  0  0
   -7.2248   -5.0587  -22.9802 C   0  0  0  0  0  0  0  0  0  0  0  0
   -6.6802   -6.5159  -22.0921 S   0  0  0  0  0  0  0  0  0  0  0  0
   -7.0829   -6.3897  -20.7023 O   0  0  0  0  0  0  0  0  0  0  0  0
   -7.0394   -7.6713  -22.9024 O   0  0  0  0  0  0  0  0  0  0  0  0
   -5.0391   -6.3829  -22.0704 N   0  0  0  0  0  0  0  0  0  0  0  0
   -4.2173   -6.7905  -23.1902 C   0  0  0  0  0  0  0  0  0  0  0  0
   -9.7171   -2.7303  -22.9349 C   0  0  0  0  0  0  0  0  0  0  0  0
  -10.5511   -3.6073  -22.2278 C   0  0  0  0  0  0  0  0  0  0  0  0
  -11.9216   -3.5248  -22.3885 C   0  0  0  0  0  0  0  0  0  0  0  0
  -12.7063   -4.3597  -21.6827 F   0  0  0  0  0  0  0  0  0  0  0  0
  -12.5300   -2.6021  -23.2329 C   0  0  0  0  0  0  0  0  0  0  0  0
  -11.7113   -1.7499  -23.9476 C   0  0  0  0  0  0  0  0  0  0  0  0
  -10.3240   -1.8241  -23.8195 C   0  0  0  0  0  0  0  0  0  0  0  0
   -9.5140   -0.8929  -24.6658 C   0  0  0  0  0  0  0  0  0  0  0  0
  -10.0224    0.0333  -25.2829 O   0  0  0  0  0  0  0  0  0  0  0  0
   -6.8694    3.5155  -23.8447 H   0  0  0  0  0  0  0  0  0  0  0  0
   -5.7031    2.4819  -22.9863 H   0  0  0  0  0  0  0  0  0  0  0  0
   -7.3026    2.8051  -22.2668 H   0  0  0  0  0  0  0  0  0  0  0  0
   -7.9653    0.8745  -23.2858 H   0  0  0  0  0  0  0  0  0  0  0  0
   -6.4646   -0.8724  -25.8672 H   0  0  0  0  0  0  0  0  0  0  0  0
   -7.9277   -0.0938  -26.4753 H   0  0  0  0  0  0  0  0  0  0  0  0
   -6.5053   -2.1446  -23.9746 H   0  0  0  0  0  0  0  0  0  0  0  0
   -7.7158   -3.1785  -24.7640 H   0  0  0  0  0  0  0  0  0  0  0  0
   -7.3330   -1.9379  -18.3948 H   0  0  0  0  0  0  0  0  0  0  0  0
   -4.6433    0.9613  -17.2021 H   0  0  0  0  0  0  0  0  0  0  0  0
   -3.1675    2.0896  -18.8260 H   0  0  0  0  0  0  0  0  0  0  0  0
   -2.3263    2.3441  -21.1491 H   0  0  0  0  0  0  0  0  0  0  0  0
   -3.2694    0.9490  -22.9725 H   0  0  0  0  0  0  0  0  0  0  0  0
   -5.0263   -0.6938  -22.4955 H   0  0  0  0  0  0  0  0  0  0  0  0
   -5.4354   -3.2489  -21.9623 H   0  0  0  0  0  0  0  0  0  0  0  0
   -6.0555   -3.8712  -20.4181 H   0  0  0  0  0  0  0  0  0  0  0  0
   -8.2314   -4.2326  -21.2932 H   0  0  0  0  0  0  0  0  0  0  0  0
   -6.4383   -4.8153  -23.7059 H   0  0  0  0  0  0  0  0  0  0  0  0
   -8.1136   -5.3709  -23.5341 H   0  0  0  0  0  0  0  0  0  0  0  0
   -4.6825   -5.6959  -21.4202 H   0  0  0  0  0  0  0  0  0  0  0  0
   -3.1769   -6.8211  -22.8660 H   0  0  0  0  0  0  0  0  0  0  0  0
   -4.5119   -7.7899  -23.5032 H   0  0  0  0  0  0  0  0  0  0  0  0
   -4.2780   -6.1365  -24.0672 H   0  0  0  0  0  0  0  0  0  0  0  0
  -10.1671   -4.3585  -21.5465 H   0  0  0  0  0  0  0  0  0  0  0  0
  -13.6140   -2.5765  -23.3035 H   0  0  0  0  0  0  0  0  0  0  0  0
  -12.1220   -1.0065  -24.6224 H   0  0  0  0  0  0  0  0  0  0  0  0
  1  2  1  0
  2  3  1  0
  3  4  2  0
  3  5  1  0
  5  6  1  0
  6  7  1  0
  8  7  1  6
  8  9  1  0
  9 10  2  0
  9 11  1  0
 11 12  1  0
 12 13  2  0
 13 14  1  0
 14 15  2  0
 15 16  1  0
 16 17  2  0
 17 18  1  0
 18 19  2  0
 19 20  1  0
 20 21  2  0
 11 22  1  0
 22 23  1  0
 23 24  1  0
 24 25  1  0
 25 26  2  0
 25 27  2  0
 25 28  1  0
 28 29  1  0
  8 30  1  0
 30 31  2  0
 31 32  1  0
 32 33  1  0
 32 34  2  0
 34 35  1  0
 35 36  2  0
 36 37  1  0
 37 38  2  0
 37  6  1  0
 23  8  1  0
 36 30  1  0
 21 12  1  0
 21 16  1  0
  1 39  1  0
  1 40  1  0
  1 41  1  0
  2 42  1  0
  5 43  1  0
  5 44  1  0
  7 45  1  0
  7 46  1  0
 13 47  1  0
 15 48  1  0
 17 49  1  0
 18 50  1  0
 19 51  1  0
 20 52  1  0
 22 53  1  0
 22 54  1  0
 23 55  1  1
 24 56  1  0
 24 57  1  0
 28 58  1  0
 29 59  1  0
 29 60  1  0
 29 61  1  0
 31 62  1  0
 34 63  1  0
 35 64  1  0
M  END
>  <RMSD>  (4) 
0.05942918957786141

$$$$

     RDKit          3D

 55 60  0  0  0  0  0  0  0  0999 V2000
   -7.2335   -5.0332  -23.0353 C   0  0  0  0  0  0  0  0  0  0  0  0
   -7.5631   -3.8769  -22.1002 C   0  0  1  0  0  0  0  0  0  0  0  0
   -6.3539   -3.2995  -21.3555 C   0  0  0  0  0  0  0  0  0  0  0  0
   -6.8091   -1.9734  -20.9771 N   0  0  0  0  0  0  0  0  0  0  0  0
   -6.1736   -1.1561  -20.0045 C   0  0  0  0  0  0  0  0  0  0  0  0
   -6.5467   -1.2440  -18.6855 C   0  0  0  0  0  0  0  0  0  0  0  0
   -6.0162   -0.5010  -17.6831 N   0  0  0  0  0  0  0  0  0  0  0  0
   -5.0741    0.3605  -17.9985 C   0  0  0  0  0  0  0  0  0  0  0  0
   -4.5718    0.5395  -19.3211 C   0  0  0  0  0  0  0  0  0  0  0  0
   -3.5559    1.4887  -19.6312 C   0  0  0  0  0  0  0  0  0  0  0  0
   -3.1048    1.6252  -20.9168 C   0  0  0  0  0  0  0  0  0  0  0  0
   -3.6322    0.8190  -21.9483 C   0  0  0  0  0  0  0  0  0  0  0  0
   -4.6179   -0.0996  -21.6780 C   0  0  0  0  0  0  0  0  0  0  0  0
   -5.1220   -0.2514  -20.3573 C   0  0  0  0  0  0  0  0  0  0  0  0
   -7.8820   -1.5272  -21.7261 C   0  0  0  0  0  0  0  0  0  0  0  0
   -8.4202   -0.4570  -21.5788 O   0  0  0  0  0  0  0  0  0  0  0  0
   -8.2330   -2.6374  -22.7525 C   0  0  1  0  0  0  0  0  0  0  0  0
   -7.5849   -2.2906  -24.1201 C   0  0  0  0  0  0  0  0  0  0  0  0
   -8.1495   -1.0853  -24.6917 N   0  0  0  0  0  0  0  0  0  0  0  0
   -7.3236   -0.2718  -25.5595 C   0  0  0  0  0  0  0  0  0  0  0  0
   -7.0043    1.0634  -24.9771 C   0  0  0  0  0  0  0  0  0  0  0  0
   -6.8406    2.2732  -25.6466 C   0  0  0  0  0  0  0  0  0  0  0  0
   -6.4903    3.2157  -24.7766 N   0  0  0  0  0  0  0  0  0  0  0  0
   -6.4588    2.5523  -23.6439 N   0  0  0  0  0  0  0  0  0  0  0  0
   -6.7499    1.2648  -23.6836 N   0  0  0  0  0  0  0  0  0  0  0  0
   -9.4898   -0.8142  -24.6480 C   0  0  0  0  0  0  0  0  0  0  0  0
   -9.9760    0.1405  -25.2384 O   0  0  0  0  0  0  0  0  0  0  0  0
  -10.3251   -1.7780  -23.8500 C   0  0  0  0  0  0  0  0  0  0  0  0
  -11.7159   -1.7199  -23.9784 C   0  0  0  0  0  0  0  0  0  0  0  0
  -12.5282   -2.5740  -23.2577 C   0  0  0  0  0  0  0  0  0  0  0  0
  -11.9211   -3.4977  -22.4157 C   0  0  0  0  0  0  0  0  0  0  0  0
  -12.6941   -4.3317  -21.6998 F   0  0  0  0  0  0  0  0  0  0  0  0
  -10.5514   -3.5858  -22.2677 C   0  0  0  0  0  0  0  0  0  0  0  0
   -9.7284   -2.7086  -22.9815 C   0  0  0  0  0  0  0  0  0  0  0  0
   -6.8780   -5.9046  -22.4765 H   0  0  0  0  0  0  0  0  0  0  0  0
   -6.4503   -4.7557  -23.7483 H   0  0  0  0  0  0  0  0  0  0  0  0
   -8.1090   -5.3418  -23.6179 H   0  0  0  0  0  0  0  0  0  0  0  0
   -8.2293   -4.2539  -21.3186 H   0  0  0  0  0  0  0  0  0  0  0  0
   -6.0977   -3.8859  -20.4695 H   0  0  0  0  0  0  0  0  0  0  0  0
   -5.4687   -3.2740  -22.0154 H   0  0  0  0  0  0  0  0  0  0  0  0
   -7.3326   -1.9379  -18.3952 H   0  0  0  0  0  0  0  0  0  0  0  0
   -4.6533    0.9661  -17.1941 H   0  0  0  0  0  0  0  0  0  0  0  0
   -3.1504    2.1099  -18.8363 H   0  0  0  0  0  0  0  0  0  0  0  0
   -2.3312    2.3512  -21.1531 H   0  0  0  0  0  0  0  0  0  0  0  0
   -3.2743    0.9381  -22.9676 H   0  0  0  0  0  0  0  0  0  0  0  0
   -5.0377   -0.6971  -22.4825 H   0  0  0  0  0  0  0  0  0  0  0  0
   -6.5073   -2.1307  -23.9827 H   0  0  0  0  0  0  0  0  0  0  0  0
   -7.7250   -3.1247  -24.8245 H   0  0  0  0  0  0  0  0  0  0  0  0
   -6.3907   -0.8139  -25.7564 H   0  0  0  0  0  0  0  0  0  0  0  0
   -7.8190   -0.1498  -26.5259 H   0  0  0  0  0  0  0  0  0  0  0  0
   -6.9518    2.4593  -26.6964 H   0  0  0  0  0  0  0  0  0  0  0  0
   -6.2168    3.0055  -22.7862 H   0  0  0  0  0  0  0  0  0  0  0  0
  -12.1586   -0.9954  -24.6516 H   0  0  0  0  0  0  0  0  0  0  0  0
  -13.6128   -2.5348  -23.3272 H   0  0  0  0  0  0  0  0  0  0  0  0
  -10.1544   -4.3384  -21.5958 H   0  0  0  0  0  0  0  0  0  0  0  0
  1  2  1  0
  2  3  1  0
  3  4  1  0
  4  5  1  0
  5  6  2  0
  6  7  1  0
  7  8  2  0
  8  9  1  0
  9 10  2  0
 10 11  1  0
 11 12  2  0
 12 13  1  0
 13 14  2  0
  4 15  1  0
 15 16  2  0
 15 17  1  0
 17 18  1  6
 18 19  1  0
 19 20  1  0
 20 21  1  0
 21 22  1  0
 22 23  2  0
 23 24  1  0
 24 25  1  0
 19 26  1  0
 26 27  2  0
 26 28  1  0
 28 29  2  0
 29 30  1  0
 30 31  2  0
 31 32  1  0
 31 33  1  0
 33 34  2  0
 17  2  1  0
 25 21  2  0
 34 28  1  0
 14  5  1  0
 34 17  1  0
 14  9  1  0
  1 35  1  0
  1 36  1  0
  1 37  1  0
  2 38  1  1
  3 39  1  0
  3 40  1  0
  6 41  1  0
  8 42  1  0
 10 43  1  0
 11 44  1  0
 12 45  1  0
 13 46  1  0
 18 47  1  0
 18 48  1  0
 20 49  1  0
 20 50  1  0
 22 51  1  0
 24 52  1  0
 29 53  1  0
 30 54  1  0
 33 55  1  0
M  END
>  <RMSD>  (5) 
0.05494504020247702

$$$$

     RDKit          3D

 44 47  0  0  0  0  0  0  0  0999 V2000
   -8.7841   -2.7525  -19.9227 O   0  0  0  0  0  0  0  0  0  0  0  0
   -7.9048   -2.8093  -20.7613 C   0  0  0  0  0  0  0  0  0  0  0  0
   -7.1261   -1.5615  -21.1123 C   0  0  0  0  0  0  0  0  0  0  0  0
   -6.2330   -1.0795  -20.0042 C   0  0  0  0  0  0  0  0  0  0  0  0
   -6.5735   -1.2011  -18.6772 C   0  0  0  0  0  0  0  0  0  0  0  0
   -5.9374   -0.5617  -17.6566 N   0  0  0  0  0  0  0  0  0  0  0  0
   -4.9701    0.2536  -17.9953 C   0  0  0  0  0  0  0  0  0  0  0  0
   -4.5495    0.5046  -19.3287 C   0  0  0  0  0  0  0  0  0  0  0  0
   -3.6347    1.5332  -19.6519 C   0  0  0  0  0  0  0  0  0  0  0  0
   -3.1567    1.6694  -20.9243 C   0  0  0  0  0  0  0  0  0  0  0  0
   -3.5909    0.7779  -21.9347 C   0  0  0  0  0  0  0  0  0  0  0  0
   -4.5603   -0.1568  -21.6646 C   0  0  0  0  0  0  0  0  0  0  0  0
   -5.1116   -0.2717  -20.3589 C   0  0  0  0  0  0  0  0  0  0  0  0
   -7.5749   -3.9852  -21.4235 N   0  0  0  0  0  0  0  0  0  0  0  0
   -7.1794   -3.9154  -22.8384 C   0  0  0  0  0  0  0  0  0  0  0  0
   -8.2975   -3.2637  -23.6617 C   0  0  0  0  0  0  0  0  0  0  0  0
   -9.6775   -3.6649  -23.1159 C   0  0  0  0  0  0  0  0  0  0  0  0
  -10.4350   -2.5215  -22.3826 C   0  0  0  0  0  0  0  0  0  0  0  0
  -11.3592   -2.3186  -23.5963 C   0  0  0  0  0  0  0  0  0  0  0  0
  -10.7576   -3.6061  -24.2058 C   0  0  0  0  0  0  0  0  0  0  0  0
   -9.6461   -4.9974  -22.3443 C   0  0  0  0  0  0  0  0  0  0  0  0
   -8.5514   -5.0641  -21.2493 C   0  0  0  0  0  0  0  0  0  0  0  0
   -7.8737   -0.7692  -21.3010 H   0  0  0  0  0  0  0  0  0  0  0  0
   -6.5540   -1.7196  -22.0207 H   0  0  0  0  0  0  0  0  0  0  0  0
   -7.4315   -1.8051  -18.3912 H   0  0  0  0  0  0  0  0  0  0  0  0
   -4.4680    0.7897  -17.1935 H   0  0  0  0  0  0  0  0  0  0  0  0
   -3.3519    2.2198  -18.8637 H   0  0  0  0  0  0  0  0  0  0  0  0
   -2.4518    2.4629  -21.1639 H   0  0  0  0  0  0  0  0  0  0  0  0
   -3.1883    0.8634  -22.9414 H   0  0  0  0  0  0  0  0  0  0  0  0
   -4.9075   -0.8168  -22.4576 H   0  0  0  0  0  0  0  0  0  0  0  0
   -7.0582   -4.9513  -23.1725 H   0  0  0  0  0  0  0  0  0  0  0  0
   -6.2016   -3.4375  -22.9603 H   0  0  0  0  0  0  0  0  0  0  0  0
   -8.2247   -2.1678  -23.6406 H   0  0  0  0  0  0  0  0  0  0  0  0
   -8.1815   -3.5609  -24.7132 H   0  0  0  0  0  0  0  0  0  0  0  0
  -10.9531   -2.9146  -21.5139 H   0  0  0  0  0  0  0  0  0  0  0  0
   -9.8346   -1.6652  -22.0658 H   0  0  0  0  0  0  0  0  0  0  0  0
  -12.4356   -2.3457  -23.4019 H   0  0  0  0  0  0  0  0  0  0  0  0
  -11.1535   -1.4033  -24.1597 H   0  0  0  0  0  0  0  0  0  0  0  0
  -11.4286   -4.4624  -24.1464 H   0  0  0  0  0  0  0  0  0  0  0  0
  -10.3481   -3.5432  -25.2132 H   0  0  0  0  0  0  0  0  0  0  0  0
   -9.5013   -5.8051  -23.0805 H   0  0  0  0  0  0  0  0  0  0  0  0
  -10.6326   -5.1576  -21.8908 H   0  0  0  0  0  0  0  0  0  0  0  0
   -8.0127   -6.0177  -21.3023 H   0  0  0  0  0  0  0  0  0  0  0  0
   -8.9378   -4.9604  -20.2345 H   0  0  0  0  0  0  0  0  0  0  0  0
  1  2  2  0
  2  3  1  0
  3  4  1  0
  4  5  2  0
  5  6  1  0
  6  7  2  0
  7  8  1  0
  8  9  2  0
  9 10  1  0
 10 11  2  0
 11 12  1  0
 12 13  2  0
  2 14  1  0
 14 15  1  0
 15 16  1  0
 16 17  1  0
 17 18  1  0
 18 19  1  0
 19 20  1  0
 17 21  1  0
 21 22  1  0
 13  4  1  0
 22 14  1  0
 13  8  1  0
 20 17  1  0
  3 23  1  0
  3 24  1  0
  5 25  1  0
  7 26  1  0
  9 27  1  0
 10 28  1  0
 11 29  1  0
 12 30  1  0
 15 31  1  0
 15 32  1  0
 16 33  1  0
 16 34  1  0
 18 35  1  0
 18 36  1  0
 19 37  1  0
 19 38  1  0
 20 39  1  0
 20 40  1  0
 21 41  1  0
 21 42  1  0
 22 43  1  0
 22 44  1  0
M  END
>  <RMSD>  (6) 
0.15433688657553704

$$$$

     RDKit          3D

 63 67  0  0  0  0  0  0  0  0999 V2000
   -4.6133   -4.6681  -19.7918 C   0  0  0  0  0  0  0  0  0  0  0  0
   -4.6541   -5.1172  -21.1682 C   0  0  0  0  0  0  0  0  0  0  0  0
   -5.9518   -5.4465  -21.6958 C   0  0  0  0  0  0  0  0  0  0  0  0
   -6.8370   -6.0050  -20.9798 O   0  0  0  0  0  0  0  0  0  0  0  0
   -5.9764   -4.8194  -22.8992 N   0  0  0  0  0  0  0  0  0  0  0  0
   -4.8495   -4.2997  -23.6467 C   0  0  0  0  0  0  0  0  0  0  0  0
   -5.3724   -3.1643  -26.2426 C   0  0  0  0  0  0  0  0  0  0  0  0
   -6.9169   -3.1480  -26.5734 C   0  0  0  0  0  0  0  0  0  0  0  0
   -8.4556   -4.0575  -24.3208 C   0  0  0  0  0  0  0  0  0  0  0  0
   -8.0356   -4.9753  -23.5039 C   0  0  0  0  0  0  0  0  0  0  0  0
   -7.2025   -5.6305  -24.4511 C   0  0  0  0  0  0  0  0  0  0  0  0
   -6.4586   -4.6873  -25.0533 C   0  0  0  0  0  0  0  0  0  0  0  0
   -6.9611   -3.2657  -24.8589 C   0  0  0  0  0  0  0  0  0  0  0  0
   -7.7992   -2.9815  -23.3805 C   0  0  0  0  0  0  0  0  0  0  0  0
   -8.0287   -1.7074  -23.1335 N   0  0  1  0  0  0  0  0  0  0  0  0
   -9.0052   -0.9271  -24.0863 C   0  0  0  0  0  0  0  0  0  0  0  0
  -10.4500   -1.0651  -23.7401 C   0  0  0  0  0  0  0  0  0  0  0  0
  -11.2815   -0.0211  -24.0942 C   0  0  0  0  0  0  0  0  0  0  0  0
  -12.6288   -0.0837  -23.7819 C   0  0  0  0  0  0  0  0  0  0  0  0
  -13.1340   -1.1742  -23.0846 C   0  0  0  0  0  0  0  0  0  0  0  0
  -12.2750   -2.1903  -22.7086 C   0  0  0  0  0  0  0  0  0  0  0  0
  -12.8536   -3.4657  -21.6731 Cl  0  0  0  0  0  0  0  0  0  0  0  0
  -10.9467   -2.1773  -23.0538 C   0  0  0  0  0  0  0  0  0  0  0  0
   -7.8090   -1.2411  -21.8182 C   0  0  0  0  0  0  0  0  0  0  0  0
   -8.1717   -0.0914  -21.5332 O   0  0  0  0  0  0  0  0  0  0  0  0
   -6.7863   -2.0649  -21.0105 C   0  0  0  0  0  0  0  0  0  0  0  0
   -6.1113   -1.2207  -19.9920 C   0  0  0  0  0  0  0  0  0  0  0  0
   -6.5223   -1.2721  -18.6633 C   0  0  0  0  0  0  0  0  0  0  0  0
   -6.0311   -0.5026  -17.6790 N   0  0  0  0  0  0  0  0  0  0  0  0
   -5.0744    0.3773  -17.9970 C   0  0  0  0  0  0  0  0  0  0  0  0
   -4.5748    0.5369  -19.3224 C   0  0  0  0  0  0  0  0  0  0  0  0
   -3.5657    1.4868  -19.6289 C   0  0  0  0  0  0  0  0  0  0  0  0
   -3.1096    1.6163  -20.9227 C   0  0  0  0  0  0  0  0  0  0  0  0
   -3.6360    0.8201  -21.9380 C   0  0  0  0  0  0  0  0  0  0  0  0
   -4.6207   -0.1102  -21.6701 C   0  0  0  0  0  0  0  0  0  0  0  0
   -5.1146   -0.2735  -20.3460 C   0  0  0  0  0  0  0  0  0  0  0  0
   -5.1947   -4.1511  -19.1052 H   0  0  0  0  0  0  0  0  0  0  0  0
   -5.1948   -4.1510  -19.1051 H   0  0  0  0  0  0  0  0  0  0  0  0
   -3.8955   -5.5832  -19.9341 H   0  0  0  0  0  0  0  0  0  0  0  0
   -4.4440   -3.3263  -23.3385 H   0  0  0  0  0  0  0  0  0  0  0  0
   -3.9769   -4.8461  -23.9422 H   0  0  0  0  0  0  0  0  0  0  0  0
   -4.5584   -3.7858  -26.7896 H   0  0  0  0  0  0  0  0  0  0  0  0
   -4.7290   -2.1842  -26.0923 H   0  0  0  0  0  0  0  0  0  0  0  0
   -7.5906   -2.2541  -26.8926 H   0  0  0  0  0  0  0  0  0  0  0  0
   -7.5101   -3.8946  -27.3131 H   0  0  0  0  0  0  0  0  0  0  0  0
   -7.0147   -6.6889  -24.6734 H   0  0  0  0  0  0  0  0  0  0  0  0
   -5.7974   -4.9846  -25.8362 H   0  0  0  0  0  0  0  0  0  0  0  0
   -6.1809   -2.4363  -24.5799 H   0  0  0  0  0  0  0  0  0  0  0  0
   -7.1787   -1.2457  -23.5509 H   0  0  0  0  0  0  0  0  0  0  0  0
   -8.7831   -1.2903  -25.1069 H   0  0  0  0  0  0  0  0  0  0  0  0
   -8.6842    0.0980  -24.0253 H   0  0  0  0  0  0  0  0  0  0  0  0
  -10.8773    0.8498  -24.6044 H   0  0  0  0  0  0  0  0  0  0  0  0
  -13.2785    0.7324  -24.0615 H   0  0  0  0  0  0  0  0  0  0  0  0
  -14.1888   -1.2144  -22.8165 H   0  0  0  0  0  0  0  0  0  0  0  0
  -10.2853   -3.0024  -22.7586 H   0  0  0  0  0  0  0  0  0  0  0  0
   -7.3484   -2.8957  -20.5794 H   0  0  0  0  0  0  0  0  0  0  0  0
   -6.0279   -2.5272  -21.6839 H   0  0  0  0  0  0  0  0  0  0  0  0
   -7.3062   -1.9593  -18.3929 H   0  0  0  0  0  0  0  0  0  0  0  0
   -4.6756    0.9905  -17.2047 H   0  0  0  0  0  0  0  0  0  0  0  0
   -3.1523    2.1220  -18.8487 H   0  0  0  0  0  0  0  0  0  0  0  0
   -2.3358    2.3484  -21.1589 H   0  0  0  0  0  0  0  0  0  0  0  0
   -3.2745    0.9300  -22.9604 H   0  0  0  0  0  0  0  0  0  0  0  0
   -5.0118   -0.7081  -22.4824 H   0  0  0  0  0  0  0  0  0  0  0  0
  1  2  2  0
  2  3  1  0
  3  4  2  0
  3  5  1  0
  5  6  1  0
  6  7  1  0
  7  8  1  0
  8  9  1  0
  9 10  2  0
 10 11  1  0
 11 12  2  0
 12 13  1  0
 13 14  2  0
 14 15  1  0
 15 16  1  0
 16 17  1  0
 17 18  2  0
 18 19  1  0
 19 20  2  0
 20 21  1  0
 21 22  1  0
 21 23  2  0
 15 24  1  0
 24 25  2  0
 24 26  1  0
 26 27  1  0
 27 28  2  0
 28 29  1  0
 29 30  2  0
 30 31  1  0
 31 32  2  0
 32 33  1  0
 33 34  2  0
 34 35  1  0
 35 36  2  0
 10  5  1  0
 23 17  1  0
 36 27  1  0
 14  9  1  0
 36 31  1  0
  1 37  1  0
  1 38  1  0
  2 39  1  0
  6 40  1  0
  6 41  1  0
  7 42  1  0
  7 43  1  0
  8 44  1  0
  8 45  1  0
 11 46  1  0
 12 47  1  0
 13 48  1  0
 15 49  1  6
 16 50  1  0
 16 51  1  0
 18 52  1  0
 19 53  1  0
 20 54  1  0
 23 55  1  0
 26 56  1  0
 26 57  1  0
 28 58  1  0
 30 59  1  0
 32 60  1  0
 33 61  1  0
 34 62  1  0
 35 63  1  0
M  CHG  1  15   1
M  END
>  <RMSD>  (7) 
0.02846481944259657

$$$$

     RDKit          3D

 43 47  0  0  0  0  0  0  0  0999 V2000
   -7.7217   -0.3434  -18.5444 O   0  0  0  0  0  0  0  0  0  0  0  0
   -7.9249   -0.6987  -19.6809 C   0  0  0  0  0  0  0  0  0  0  0  0
   -9.0472   -0.5300  -20.4450 N   0  0  0  0  0  0  0  0  0  0  0  0
   -8.9899   -1.1759  -21.7286 C   0  0  2  0  0  0  0  0  0  0  0  0
   -9.3706   -0.3626  -22.9770 C   0  0  0  0  0  0  0  0  0  0  0  0
  -10.3395   -1.4865  -23.4126 C   0  0  2  0  0  0  0  0  0  0  0  0
  -11.7508   -1.1335  -23.7963 C   0  0  0  0  0  0  0  0  0  0  0  0
  -12.2149   -1.5756  -25.0371 C   0  0  0  0  0  0  0  0  0  0  0  0
  -13.4961   -1.3074  -25.4917 C   0  0  0  0  0  0  0  0  0  0  0  0
  -14.3645   -0.5729  -24.6967 C   0  0  0  0  0  0  0  0  0  0  0  0
  -13.9429   -0.1166  -23.4570 C   0  0  0  0  0  0  0  0  0  0  0  0
  -12.6538   -0.3956  -23.0168 C   0  0  0  0  0  0  0  0  0  0  0  0
  -12.2511    0.2344  -21.4383 Cl  0  0  0  0  0  0  0  0  0  0  0  0
  -10.0832   -2.2014  -22.0668 C   0  0  0  0  0  0  0  0  0  0  0  0
   -7.5801   -1.7296  -21.7360 C   0  0  0  0  0  0  0  0  0  0  0  0
   -7.0461   -2.3644  -22.6098 O   0  0  0  0  0  0  0  0  0  0  0  0
   -7.0067   -1.3609  -20.5147 N   0  0  0  0  0  0  0  0  0  0  0  0
   -5.6491   -1.5288  -20.1199 C   0  0  0  0  0  0  0  0  0  0  0  0
   -5.2537   -2.6682  -19.4729 C   0  0  0  0  0  0  0  0  0  0  0  0
   -4.0331   -2.8469  -18.9014 N   0  0  0  0  0  0  0  0  0  0  0  0
   -3.1712   -1.8602  -18.9712 C   0  0  0  0  0  0  0  0  0  0  0  0
   -3.4266   -0.6405  -19.6595 C   0  0  0  0  0  0  0  0  0  0  0  0
   -2.4680    0.4098  -19.7243 C   0  0  0  0  0  0  0  0  0  0  0  0
   -2.7500    1.5567  -20.4124 C   0  0  0  0  0  0  0  0  0  0  0  0
   -3.9959    1.7106  -21.0627 C   0  0  0  0  0  0  0  0  0  0  0  0
   -4.9420    0.7194  -21.0035 C   0  0  0  0  0  0  0  0  0  0  0  0
   -4.6891   -0.4777  -20.2826 C   0  0  0  0  0  0  0  0  0  0  0  0
   -9.9054   -0.1659  -20.0652 H   0  0  0  0  0  0  0  0  0  0  0  0
   -9.8547    0.5791  -22.7376 H   0  0  0  0  0  0  0  0  0  0  0  0
   -8.5384   -0.1787  -23.6532 H   0  0  0  0  0  0  0  0  0  0  0  0
   -9.8730   -2.0581  -24.2179 H   0  0  0  0  0  0  0  0  0  0  0  0
  -11.5380   -2.1474  -25.6648 H   0  0  0  0  0  0  0  0  0  0  0  0
  -13.8130   -1.6689  -26.4642 H   0  0  0  0  0  0  0  0  0  0  0  0
  -15.3683   -0.3524  -25.0406 H   0  0  0  0  0  0  0  0  0  0  0  0
  -14.6151    0.4576  -22.8270 H   0  0  0  0  0  0  0  0  0  0  0  0
   -9.6699   -3.1998  -22.1274 H   0  0  0  0  0  0  0  0  0  0  0  0
  -10.9320   -2.2059  -21.3869 H   0  0  0  0  0  0  0  0  0  0  0  0
   -5.9397   -3.5046  -19.3697 H   0  0  0  0  0  0  0  0  0  0  0  0
   -2.2020   -1.9929  -18.4787 H   0  0  0  0  0  0  0  0  0  0  0  0
   -1.5117    0.2903  -19.2144 H   0  0  0  0  0  0  0  0  0  0  0  0
   -2.0204    2.3611  -20.4681 H   0  0  0  0  0  0  0  0  0  0  0  0
   -4.2075    2.6236  -21.6111 H   0  0  0  0  0  0  0  0  0  0  0  0
   -5.9020    0.8411  -21.4976 H   0  0  0  0  0  0  0  0  0  0  0  0
  1  2  2  0
  2  3  1  0
  4  3  1  1
  4  5  1  0
  5  6  1  0
  6  7  1  0
  7  8  2  0
  8  9  1  0
  9 10  2  0
 10 11  1  0
 11 12  2  0
 12 13  1  0
  6 14  1  0
  4 15  1  0
 15 16  2  0
 15 17  1  0
 17 18  1  0
 18 19  2  0
 19 20  1  0
 20 21  2  0
 21 22  1  0
 22 23  2  0
 23 24  1  0
 24 25  2  0
 25 26  1  0
 26 27  2  0
 17  2  1  0
 27 18  1  0
 14  4  1  0
 27 22  1  0
 12  7  1  0
  3 28  1  0
  5 29  1  0
  5 30  1  0
  6 31  1  6
  8 32  1  0
  9 33  1  0
 10 34  1  0
 11 35  1  0
 14 36  1  0
 14 37  1  0
 19 38  1  0
 21 39  1  0
 23 40  1  0
 24 41  1  0
 25 42  1  0
 26 43  1  0
M  END
>  <RMSD>  (8) 
2.524337651369708

$$$$

     RDKit          3D

 40 44  0  0  0  0  0  0  0  0999 V2000
   -5.8587   -3.9302  -20.9960 O   0  0  0  0  0  0  0  0  0  0  0  0
   -6.6958   -3.1709  -21.4260 C   0  0  0  0  0  0  0  0  0  0  0  0
   -7.6260   -3.3871  -22.4104 N   0  0  0  0  0  0  0  0  0  0  0  0
   -8.3669   -2.1981  -22.8143 C   0  0  1  0  0  0  0  0  0  0  0  0
   -7.7666   -1.5228  -24.0905 C   0  0  0  0  0  0  0  0  0  0  0  0
   -8.7732   -1.2883  -25.2042 C   0  0  0  0  0  0  0  0  0  0  0  0
  -10.0035   -0.7866  -24.7077 O   0  0  0  0  0  0  0  0  0  0  0  0
  -10.6038   -1.6329  -23.8410 C   0  0  0  0  0  0  0  0  0  0  0  0
  -11.9878   -1.7066  -23.8609 C   0  0  0  0  0  0  0  0  0  0  0  0
  -12.5968   -2.6284  -23.0266 C   0  0  0  0  0  0  0  0  0  0  0  0
  -11.9328   -3.4369  -22.1935 N   0  0  0  0  0  0  0  0  0  0  0  0
  -10.6027   -3.3124  -22.1620 C   0  0  0  0  0  0  0  0  0  0  0  0
   -9.8670   -2.4166  -22.9465 C   0  0  0  0  0  0  0  0  0  0  0  0
   -8.0178   -1.2767  -21.6197 C   0  0  0  0  0  0  0  0  0  0  0  0
   -8.5412   -0.2448  -21.2983 O   0  0  0  0  0  0  0  0  0  0  0  0
   -6.9145   -1.8535  -20.9843 N   0  0  0  0  0  0  0  0  0  0  0  0
   -6.1561   -1.1636  -19.9994 C   0  0  0  0  0  0  0  0  0  0  0  0
   -6.4902   -1.2893  -18.6795 C   0  0  0  0  0  0  0  0  0  0  0  0
   -5.9420   -0.5534  -17.6786 N   0  0  0  0  0  0  0  0  0  0  0  0
   -5.0366    0.3365  -18.0095 C   0  0  0  0  0  0  0  0  0  0  0  0
   -4.5715    0.5427  -19.3387 C   0  0  0  0  0  0  0  0  0  0  0  0
   -3.5871    1.5180  -19.6462 C   0  0  0  0  0  0  0  0  0  0  0  0
   -3.1402    1.6624  -20.9298 C   0  0  0  0  0  0  0  0  0  0  0  0
   -3.6450    0.8370  -21.9583 C   0  0  0  0  0  0  0  0  0  0  0  0
   -4.6046   -0.1049  -21.6888 C   0  0  0  0  0  0  0  0  0  0  0  0
   -5.1123   -0.2564  -20.3692 C   0  0  0  0  0  0  0  0  0  0  0  0
   -7.6049   -4.2371  -22.9500 H   0  0  0  0  0  0  0  0  0  0  0  0
   -7.3235   -0.5590  -23.8117 H   0  0  0  0  0  0  0  0  0  0  0  0
   -6.9598   -2.1493  -24.4726 H   0  0  0  0  0  0  0  0  0  0  0  0
   -8.4245   -0.5123  -25.8874 H   0  0  0  0  0  0  0  0  0  0  0  0
   -8.9700   -2.2152  -25.7582 H   0  0  0  0  0  0  0  0  0  0  0  0
  -12.5449   -1.0742  -24.5478 H   0  0  0  0  0  0  0  0  0  0  0  0
  -13.6822   -2.7048  -23.0422 H   0  0  0  0  0  0  0  0  0  0  0  0
  -10.0839   -3.9754  -21.4725 H   0  0  0  0  0  0  0  0  0  0  0  0
   -7.2540   -2.0069  -18.3880 H   0  0  0  0  0  0  0  0  0  0  0  0
   -4.6117    0.9469  -17.2100 H   0  0  0  0  0  0  0  0  0  0  0  0
   -3.1988    2.1435  -18.8468 H   0  0  0  0  0  0  0  0  0  0  0  0
   -2.3846    2.4053  -21.1678 H   0  0  0  0  0  0  0  0  0  0  0  0
   -3.2684    0.9524  -22.9700 H   0  0  0  0  0  0  0  0  0  0  0  0
   -4.9842   -0.7390  -22.4840 H   0  0  0  0  0  0  0  0  0  0  0  0
  1  2  2  0
  2  3  1  0
  4  3  1  1
  4  5  1  0
  5  6  1  0
  6  7  1  0
  7  8  1  0
  8  9  2  0
  9 10  1  0
 10 11  2  0
 11 12  1  0
 12 13  2  0
  4 14  1  0
 14 15  2  0
 14 16  1  0
 16 17  1  0
 17 18  2  0
 18 19  1  0
 19 20  2  0
 20 21  1  0
 21 22  2  0
 22 23  1  0
 23 24  2  0
 24 25  1  0
 25 26  2  0
 16  2  1  0
 26 17  1  0
 13  4  1  0
 26 21  1  0
 13  8  1  0
  3 27  1  0
  5 28  1  0
  5 29  1  0
  6 30  1  0
  6 31  1  0
  9 32  1  0
 10 33  1  0
 12 34  1  0
 18 35  1  0
 20 36  1  0
 22 37  1  0
 23 38  1  0
 24 39  1  0
 25 40  1  0
M  END
>  <RMSD>  (9) 
0.13208795116027802

$$$$

     RDKit          3D

 40 42  0  0  0  0  0  0  0  0999 V2000
   -8.8042   -1.0536  -21.0630 O   0  0  0  0  0  0  0  0  0  0  0  0
   -8.0278   -1.8352  -21.5798 C   0  0  0  0  0  0  0  0  0  0  0  0
   -6.6793   -2.2260  -20.9496 C   0  0  0  0  0  0  0  0  0  0  0  0
   -6.1000   -1.2361  -19.9810 C   0  0  0  0  0  0  0  0  0  0  0  0
   -6.5196   -1.2576  -18.6776 C   0  0  0  0  0  0  0  0  0  0  0  0
   -6.0381   -0.4664  -17.6825 N   0  0  0  0  0  0  0  0  0  0  0  0
   -5.0886    0.3774  -18.0103 C   0  0  0  0  0  0  0  0  0  0  0  0
   -4.5610    0.5227  -19.3232 C   0  0  0  0  0  0  0  0  0  0  0  0
   -3.5546    1.4726  -19.6300 C   0  0  0  0  0  0  0  0  0  0  0  0
   -3.1037    1.6197  -20.9122 C   0  0  0  0  0  0  0  0  0  0  0  0
   -3.6457    0.8213  -21.9440 C   0  0  0  0  0  0  0  0  0  0  0  0
   -4.6120   -0.1159  -21.6747 C   0  0  0  0  0  0  0  0  0  0  0  0
   -5.0951   -0.2947  -20.3509 C   0  0  0  0  0  0  0  0  0  0  0  0
   -8.3250   -2.5122  -22.7569 N   0  0  0  0  0  0  0  0  0  0  0  0
   -9.7196   -2.6068  -23.1736 C   0  0  0  0  0  0  0  0  0  0  0  0
  -10.0737   -1.5880  -24.2648 C   0  0  0  0  0  0  0  0  0  0  0  0
   -9.0638   -1.5994  -25.4371 C   0  0  0  0  0  0  0  0  0  0  0  0
   -9.4230   -0.5586  -26.4868 C   0  0  0  0  0  0  0  0  0  0  0  0
  -10.6253   -0.9221  -27.0302 F   0  0  0  0  0  0  0  0  0  0  0  0
   -9.5705    0.6877  -25.9527 F   0  0  0  0  0  0  0  0  0  0  0  0
   -7.6416   -1.4780  -24.8758 C   0  0  0  0  0  0  0  0  0  0  0  0
   -7.3875   -2.6129  -23.8715 C   0  0  0  0  0  0  0  0  0  0  0  0
   -5.9493   -2.4936  -21.7176 H   0  0  0  0  0  0  0  0  0  0  0  0
   -6.8753   -3.1712  -20.4239 H   0  0  0  0  0  0  0  0  0  0  0  0
   -7.2996   -1.9591  -18.3771 H   0  0  0  0  0  0  0  0  0  0  0  0
   -4.6797    1.0109  -17.2204 H   0  0  0  0  0  0  0  0  0  0  0  0
   -3.1607    2.0873  -18.8256 H   0  0  0  0  0  0  0  0  0  0  0  0
   -2.3382    2.3550  -21.1483 H   0  0  0  0  0  0  0  0  0  0  0  0
   -3.2971    0.9569  -22.9619 H   0  0  0  0  0  0  0  0  0  0  0  0
   -5.0229   -0.7123  -22.4876 H   0  0  0  0  0  0  0  0  0  0  0  0
   -9.8995   -3.6321  -23.5421 H   0  0  0  0  0  0  0  0  0  0  0  0
  -10.3311   -2.4438  -22.2807 H   0  0  0  0  0  0  0  0  0  0  0  0
  -11.0886   -1.7989  -24.6338 H   0  0  0  0  0  0  0  0  0  0  0  0
  -10.0689   -0.5902  -23.8010 H   0  0  0  0  0  0  0  0  0  0  0  0
   -9.1442   -2.5380  -26.0069 H   0  0  0  0  0  0  0  0  0  0  0  0
   -8.7013   -0.4801  -27.3102 H   0  0  0  0  0  0  0  0  0  0  0  0
   -6.8614   -1.4689  -25.6502 H   0  0  0  0  0  0  0  0  0  0  0  0
   -7.5637   -0.5220  -24.3456 H   0  0  0  0  0  0  0  0  0  0  0  0
   -7.5078   -3.5931  -24.3572 H   0  0  0  0  0  0  0  0  0  0  0  0
   -6.3652   -2.5697  -23.4970 H   0  0  0  0  0  0  0  0  0  0  0  0
  1  2  2  0
  2  3  1  0
  3  4  1  0
  4  5  2  0
  5  6  1  0
  6  7  2  0
  7  8  1  0
  8  9  2  0
  9 10  1  0
 10 11  2  0
 11 12  1  0
 12 13  2  0
  2 14  1  0
 14 15  1  0
 15 16  1  0
 16 17  1  0
 17 18  1  0
 18 19  1  0
 18 20  1  0
 17 21  1  0
 21 22  1  0
 13  4  1  0
 22 14  1  0
 13  8  1  0
  3 23  1  0
  3 24  1  0
  5 25  1  0
  7 26  1  0
  9 27  1  0
 10 28  1  0
 11 29  1  0
 12 30  1  0
 15 31  1  0
 15 32  1  0
 16 33  1  0
 16 34  1  0
 17 35  1  0
 18 36  1  0
 21 37  1  0
 21 38  1  0
 22 39  1  0
 22 40  1  0
M  END
>  <RMSD>  (10) 
0.043419096459960733

$$$$

     RDKit          3D

 57 60  0  0  0  0  0  0  0  0999 V2000
  -14.7494   -1.1374  -23.5994 C   0  0  0  0  0  0  0  0  0  0  0  0
  -14.0780   -1.9102  -22.4493 C   0  0  0  0  0  0  0  0  0  0  0  0
  -13.6573   -3.3515  -22.6689 C   0  0  0  0  0  0  0  0  0  0  0  0
  -14.2299   -4.2778  -22.1270 O   0  0  0  0  0  0  0  0  0  0  0  0
  -12.5367   -3.5888  -23.4487 N   0  0  0  0  0  0  0  0  0  0  0  0
  -11.5405   -2.6628  -23.8617 C   0  0  0  0  0  0  0  0  0  0  0  0
  -11.7866   -1.6983  -24.8350 C   0  0  0  0  0  0  0  0  0  0  0  0
  -10.8282   -0.7371  -25.1179 C   0  0  0  0  0  0  0  0  0  0  0  0
   -9.5548   -0.7960  -24.5703 C   0  0  0  0  0  0  0  0  0  0  0  0
   -9.2613   -1.8516  -23.7076 C   0  0  0  0  0  0  0  0  0  0  0  0
   -7.9433   -2.0775  -23.1857 N   0  0  0  0  0  0  0  0  0  0  0  0
   -7.1006   -3.0058  -23.9474 C   0  0  0  0  0  0  0  0  0  0  0  0
   -7.5691   -4.4551  -23.9503 C   0  0  0  0  0  0  0  0  0  0  0  0
   -7.1386   -5.3525  -22.9718 C   0  0  0  0  0  0  0  0  0  0  0  0
   -7.5536   -6.6828  -22.9872 C   0  0  0  0  0  0  0  0  0  0  0  0
   -8.4175   -7.1369  -23.9784 C   0  0  0  0  0  0  0  0  0  0  0  0
   -8.8626   -6.2520  -24.9561 C   0  0  0  0  0  0  0  0  0  0  0  0
   -8.4410   -4.9256  -24.9401 C   0  0  0  0  0  0  0  0  0  0  0  0
   -7.7274   -1.5579  -21.9099 C   0  0  0  0  0  0  0  0  0  0  0  0
   -8.4183   -0.6467  -21.4915 O   0  0  0  0  0  0  0  0  0  0  0  0
   -6.6785   -2.2092  -20.9926 C   0  0  0  0  0  0  0  0  0  0  0  0
   -6.0991   -1.2445  -19.9889 C   0  0  0  0  0  0  0  0  0  0  0  0
   -6.5271   -1.2433  -18.6872 C   0  0  0  0  0  0  0  0  0  0  0  0
   -6.0282   -0.4632  -17.6926 N   0  0  0  0  0  0  0  0  0  0  0  0
   -5.0690    0.3670  -18.0085 C   0  0  0  0  0  0  0  0  0  0  0  0
   -4.5595    0.5198  -19.3255 C   0  0  0  0  0  0  0  0  0  0  0  0
   -3.5619    1.4792  -19.6297 C   0  0  0  0  0  0  0  0  0  0  0  0
   -3.1157    1.6280  -20.9140 C   0  0  0  0  0  0  0  0  0  0  0  0
   -3.6435    0.8174  -21.9445 C   0  0  0  0  0  0  0  0  0  0  0  0
   -4.6031   -0.1247  -21.6705 C   0  0  0  0  0  0  0  0  0  0  0  0
   -5.0942   -0.2978  -20.3501 C   0  0  0  0  0  0  0  0  0  0  0  0
  -10.2603   -2.7389  -23.3218 C   0  0  0  0  0  0  0  0  0  0  0  0
  -14.4939   -1.5013  -24.5986 H   0  0  0  0  0  0  0  0  0  0  0  0
  -15.8317   -1.1662  -23.4910 H   0  0  0  0  0  0  0  0  0  0  0  0
  -14.4535   -0.0854  -23.5382 H   0  0  0  0  0  0  0  0  0  0  0  0
  -13.1875   -1.3558  -22.1241 H   0  0  0  0  0  0  0  0  0  0  0  0
  -14.7571   -1.9809  -21.5958 H   0  0  0  0  0  0  0  0  0  0  0  0
  -12.2083   -4.5436  -23.3549 H   0  0  0  0  0  0  0  0  0  0  0  0
  -12.7217   -1.7126  -25.3820 H   0  0  0  0  0  0  0  0  0  0  0  0
  -11.1040    0.0670  -25.7793 H   0  0  0  0  0  0  0  0  0  0  0  0
   -8.8172   -0.0409  -24.8250 H   0  0  0  0  0  0  0  0  0  0  0  0
   -7.0841   -2.6532  -24.9886 H   0  0  0  0  0  0  0  0  0  0  0  0
   -6.0738   -2.9362  -23.5763 H   0  0  0  0  0  0  0  0  0  0  0  0
   -6.4590   -5.0136  -22.1890 H   0  0  0  0  0  0  0  0  0  0  0  0
   -7.1912   -7.3664  -22.2243 H   0  0  0  0  0  0  0  0  0  0  0  0
   -8.7409   -8.1746  -23.9954 H   0  0  0  0  0  0  0  0  0  0  0  0
   -9.5373   -6.5958  -25.7380 H   0  0  0  0  0  0  0  0  0  0  0  0
   -8.8185   -4.2304  -25.6905 H   0  0  0  0  0  0  0  0  0  0  0  0
   -5.8899   -2.7008  -21.5635 H   0  0  0  0  0  0  0  0  0  0  0  0
   -7.2108   -3.0017  -20.4451 H   0  0  0  0  0  0  0  0  0  0  0  0
   -7.3238   -1.9211  -18.3801 H   0  0  0  0  0  0  0  0  0  0  0  0
   -4.6515    0.9768  -17.2051 H   0  0  0  0  0  0  0  0  0  0  0  0
   -3.1779    2.0953  -18.8191 H   0  0  0  0  0  0  0  0  0  0  0  0
   -2.3615    2.3729  -21.1510 H   0  0  0  0  0  0  0  0  0  0  0  0
   -3.2959    0.9511  -22.9650 H   0  0  0  0  0  0  0  0  0  0  0  0
   -5.0049   -0.7312  -22.4756 H   0  0  0  0  0  0  0  0  0  0  0  0
  -10.0034   -3.5336  -22.6250 H   0  0  0  0  0  0  0  0  0  0  0  0
  1  2  1  0
  2  3  1  0
  3  4  2  0
  3  5  1  0
  5  6  1  0
  6  7  2  0
  7  8  1  0
  8  9  2  0
  9 10  1  0
 10 11  1  0
 11 12  1  0
 12 13  1  0
 13 14  2  0
 14 15  1  0
 15 16  2  0
 16 17  1  0
 17 18  2  0
 11 19  1  0
 19 20  2  0
 19 21  1  0
 21 22  1  0
 22 23  2  0
 23 24  1  0
 24 25  2  0
 25 26  1  0
 26 27  2  0
 27 28  1  0
 28 29  2  0
 29 30  1  0
 30 31  2  0
 10 32  2  0
 32  6  1  0
 18 13  1  0
 31 22  1  0
 31 26  1  0
  1 33  1  0
  1 34  1  0
  1 35  1  0
  2 36  1  0
  2 37  1  0
  5 38  1  0
  7 39  1  0
  8 40  1  0
  9 41  1  0
 12 42  1  0
 12 43  1  0
 14 44  1  0
 15 45  1  0
 16 46  1  0
 17 47  1  0
 18 48  1  0
 21 49  1  0
 21 50  1  0
 23 51  1  0
 25 52  1  0
 27 53  1  0
 28 54  1  0
 29 55  1  0
 30 56  1  0
 32 57  1  0
M  END
>  <RMSD>  (11) 
0.0542007914179491

$$$$

     RDKit          3D

 40 44  0  0  0  0  0  0  0  0999 V2000
   -7.1798    0.6802  -24.9436 C   0  0  0  0  0  0  0  0  0  0  0  0
   -6.3270   -0.5868  -24.9841 C   0  0  0  0  0  0  0  0  0  0  0  0
   -5.1291   -0.5567  -25.2227 O   0  0  0  0  0  0  0  0  0  0  0  0
   -6.9514   -1.7791  -24.7492 N   0  0  0  0  0  0  0  0  0  0  0  0
   -6.1719   -3.0178  -24.5062 C   0  0  0  0  0  0  0  0  0  0  0  0
   -7.2370   -3.9024  -23.8283 C   0  0  2  0  0  0  0  0  0  0  0  0
   -8.4915   -3.4844  -24.6027 C   0  0  0  0  0  0  0  0  0  0  0  0
   -8.3227   -1.9984  -24.2232 C   0  0  1  0  0  0  0  0  0  0  0  0
   -8.2127   -2.1302  -22.7567 C   0  0  0  0  0  0  0  0  0  0  0  0
   -7.9879   -1.2402  -21.6535 C   0  0  0  0  0  0  0  0  0  0  0  0
   -8.4844   -0.1839  -21.3322 O   0  0  0  0  0  0  0  0  0  0  0  0
   -6.9779   -1.8986  -20.8958 N   0  0  0  0  0  0  0  0  0  0  0  0
   -6.1820   -1.1779  -19.9635 C   0  0  0  0  0  0  0  0  0  0  0  0
   -6.4960   -1.2863  -18.6385 C   0  0  0  0  0  0  0  0  0  0  0  0
   -5.9314   -0.5495  -17.6535 N   0  0  0  0  0  0  0  0  0  0  0  0
   -5.0293    0.3348  -18.0040 C   0  0  0  0  0  0  0  0  0  0  0  0
   -4.5747    0.5304  -19.3394 C   0  0  0  0  0  0  0  0  0  0  0  0
   -3.5869    1.5017  -19.6577 C   0  0  0  0  0  0  0  0  0  0  0  0
   -3.1535    1.6422  -20.9473 C   0  0  0  0  0  0  0  0  0  0  0  0
   -3.6810    0.8121  -21.9659 C   0  0  0  0  0  0  0  0  0  0  0  0
   -4.6465   -0.1232  -21.6842 C   0  0  0  0  0  0  0  0  0  0  0  0
   -5.1460   -0.2654  -20.3598 C   0  0  0  0  0  0  0  0  0  0  0  0
   -6.6700   -3.1695  -21.4149 C   0  0  0  0  0  0  0  0  0  0  0  0
   -5.8396   -3.9476  -21.0242 O   0  0  0  0  0  0  0  0  0  0  0  0
   -7.5351   -3.2987  -22.5063 N   0  0  0  0  0  0  0  0  0  0  0  0
   -7.6781    0.8151  -23.9756 H   0  0  0  0  0  0  0  0  0  0  0  0
   -6.5033    1.5185  -25.1252 H   0  0  0  0  0  0  0  0  0  0  0  0
   -7.9625    0.6767  -25.7126 H   0  0  0  0  0  0  0  0  0  0  0  0
   -5.7946   -3.4176  -25.4516 H   0  0  0  0  0  0  0  0  0  0  0  0
   -5.3361   -2.8254  -23.8287 H   0  0  0  0  0  0  0  0  0  0  0  0
   -7.0087   -4.9581  -23.7512 H   0  0  0  0  0  0  0  0  0  0  0  0
   -8.4012   -3.6496  -25.6794 H   0  0  0  0  0  0  0  0  0  0  0  0
   -9.4091   -3.9354  -24.2243 H   0  0  0  0  0  0  0  0  0  0  0  0
   -9.0573   -1.2751  -24.5872 H   0  0  0  0  0  0  0  0  0  0  0  0
   -7.2331   -2.0231  -18.3331 H   0  0  0  0  0  0  0  0  0  0  0  0
   -4.6265    0.9520  -17.2022 H   0  0  0  0  0  0  0  0  0  0  0  0
   -3.2113    2.1349  -18.8554 H   0  0  0  0  0  0  0  0  0  0  0  0
   -2.4086    2.3943  -21.1957 H   0  0  0  0  0  0  0  0  0  0  0  0
   -3.3431    0.9241  -22.9917 H   0  0  0  0  0  0  0  0  0  0  0  0
   -5.0364   -0.7566  -22.4779 H   0  0  0  0  0  0  0  0  0  0  0  0
  1  2  1  0
  2  3  2  0
  2  4  1  0
  4  5  1  0
  5  6  1  0
  6  7  1  0
  7  8  1  0
  8  9  1  0
  9 10  2  0
 10 11  1  0
 10 12  1  0
 12 13  1  0
 13 14  2  0
 14 15  1  0
 15 16  2  0
 16 17  1  0
 17 18  2  0
 18 19  1  0
 19 20  2  0
 20 21  1  0
 21 22  2  0
 12 23  1  0
 23 24  2  0
 23 25  1  0
  8  4  1  0
 25  9  1  0
 25  6  1  0
 22 13  1  0
 22 17  1  0
  1 26  1  0
  1 27  1  0
  1 28  1  0
  5 29  1  0
  5 30  1  0
  6 31  1  1
  7 32  1  0
  7 33  1  0
  8 34  1  1
 14 35  1  0
 16 36  1  0
 18 37  1  0
 19 38  1  0
 20 39  1  0
 21 40  1  0
M  CHG  1  11  -1
M  END
>  <RMSD>  (12) 
0.1593648805573821

$$$$

     RDKit          3D

 58 63  0  0  0  0  0  0  0  0999 V2000
   -8.2889   -0.3461  -21.5727 O   0  0  0  0  0  0  0  0  0  0  0  0
   -7.7592   -1.3825  -21.9374 C   0  0  0  0  0  0  0  0  0  0  0  0
   -6.7641   -2.0915  -21.0116 C   0  0  0  0  0  0  0  0  0  0  0  0
   -6.1360   -1.1945  -19.9920 C   0  0  0  0  0  0  0  0  0  0  0  0
   -6.5202   -1.2535  -18.6804 C   0  0  0  0  0  0  0  0  0  0  0  0
   -6.0143   -0.4912  -17.6741 N   0  0  0  0  0  0  0  0  0  0  0  0
   -5.0766    0.3661  -18.0039 C   0  0  0  0  0  0  0  0  0  0  0  0
   -4.5751    0.5337  -19.3251 C   0  0  0  0  0  0  0  0  0  0  0  0
   -3.5698    1.4858  -19.6333 C   0  0  0  0  0  0  0  0  0  0  0  0
   -3.1088    1.6196  -20.9153 C   0  0  0  0  0  0  0  0  0  0  0  0
   -3.6316    0.8088  -21.9469 C   0  0  0  0  0  0  0  0  0  0  0  0
   -4.6101   -0.1152  -21.6753 C   0  0  0  0  0  0  0  0  0  0  0  0
   -5.1113   -0.2729  -20.3533 C   0  0  0  0  0  0  0  0  0  0  0  0
   -8.0667   -1.9329  -23.1756 N   0  0  0  0  0  0  0  0  0  0  0  0
   -8.9328   -1.1024  -24.0128 C   0  0  0  0  0  0  0  0  0  0  0  0
  -10.4131   -1.2029  -23.6823 C   0  0  0  0  0  0  0  0  0  0  0  0
  -11.2845   -0.2041  -24.1205 C   0  0  0  0  0  0  0  0  0  0  0  0
  -12.6456   -0.2766  -23.8394 C   0  0  0  0  0  0  0  0  0  0  0  0
  -13.1632   -1.3493  -23.1212 C   0  0  0  0  0  0  0  0  0  0  0  0
  -12.2925   -2.3409  -22.6923 C   0  0  0  0  0  0  0  0  0  0  0  0
  -12.9137   -3.7018  -21.7997 Cl  0  0  0  0  0  0  0  0  0  0  0  0
  -10.9295   -2.2731  -22.9542 C   0  0  0  0  0  0  0  0  0  0  0  0
   -7.5993   -3.2104  -23.6634 C   0  0  1  0  0  0  0  0  0  0  0  0
   -8.3818   -3.8936  -24.8077 C   0  0  0  0  0  0  0  0  0  0  0  0
   -7.5096   -5.1707  -25.0304 N   0  0  2  0  0  0  0  0  0  0  0  0
   -8.2489   -6.4064  -24.9657 C   0  0  0  0  0  0  0  0  0  0  0  0
   -8.1081   -7.5310  -26.0171 C   0  0  0  0  0  0  0  0  0  0  0  0
   -8.0172   -7.5622  -25.7039 C   0  0  0  0  0  0  0  0  0  0  0  0
   -6.4666   -4.8746  -23.9361 C   0  0  1  0  0  0  0  0  0  0  0  0
   -6.1554   -3.3954  -24.1899 C   0  0  0  0  0  0  0  0  0  0  0  0
   -7.3725   -4.4691  -22.7682 C   0  0  0  0  0  0  0  0  0  0  0  0
   -7.3329   -2.8711  -20.4910 H   0  0  0  0  0  0  0  0  0  0  0  0
   -5.9800   -2.5671  -21.6027 H   0  0  0  0  0  0  0  0  0  0  0  0
   -7.2903   -1.9628  -18.3757 H   0  0  0  0  0  0  0  0  0  0  0  0
   -4.6608    0.9817  -17.2048 H   0  0  0  0  0  0  0  0  0  0  0  0
   -3.1858    2.1104  -18.8312 H   0  0  0  0  0  0  0  0  0  0  0  0
   -2.3463    2.3569  -21.1508 H   0  0  0  0  0  0  0  0  0  0  0  0
   -3.2625    0.9254  -22.9624 H   0  0  0  0  0  0  0  0  0  0  0  0
   -5.0174   -0.7166  -22.4830 H   0  0  0  0  0  0  0  0  0  0  0  0
   -8.7544   -1.3620  -25.0599 H   0  0  0  0  0  0  0  0  0  0  0  0
   -8.6124   -0.0638  -23.8894 H   0  0  0  0  0  0  0  0  0  0  0  0
  -10.8970    0.6424  -24.6864 H   0  0  0  0  0  0  0  0  0  0  0  0
  -13.3121    0.5120  -24.1783 H   0  0  0  0  0  0  0  0  0  0  0  0
  -14.2218   -1.4171  -22.8910 H   0  0  0  0  0  0  0  0  0  0  0  0
  -10.2777   -3.0487  -22.5687 H   0  0  0  0  0  0  0  0  0  0  0  0
   -9.3838   -4.2182  -24.5387 H   0  0  0  0  0  0  0  0  0  0  0  0
   -8.4143   -3.3281  -25.7371 H   0  0  0  0  0  0  0  0  0  0  0  0
   -7.0737   -4.9987  -25.9610 H   0  0  0  0  0  0  0  0  0  0  0  0
   -8.5614   -6.6580  -23.9776 H   0  0  0  0  0  0  0  0  0  0  0  0
   -8.9214   -8.1709  -26.6710 H   0  0  0  0  0  0  0  0  0  0  0  0
   -8.2367   -6.8461  -27.4045 H   0  0  0  0  0  0  0  0  0  0  0  0
   -6.8875   -7.6594  -26.2025 H   0  0  0  0  0  0  0  0  0  0  0  0
   -7.9937   -8.5074  -24.9683 H   0  0  0  0  0  0  0  0  0  0  0  0
   -5.6968   -5.6304  -23.8547 H   0  0  0  0  0  0  0  0  0  0  0  0
   -5.3806   -2.9952  -23.5382 H   0  0  0  0  0  0  0  0  0  0  0  0
   -5.9519   -3.0976  -25.2277 H   0  0  0  0  0  0  0  0  0  0  0  0
   -8.2608   -5.0925  -22.5914 H   0  0  0  0  0  0  0  0  0  0  0  0
   -6.8327   -4.3325  -21.8444 H   0  0  0  0  0  0  0  0  0  0  0  0
  1  2  2  0
  2  3  1  0
  3  4  1  0
  4  5  2  0
  5  6  1  0
  6  7  2  0
  7  8  1  0
  8  9  2  0
  9 10  1  0
 10 11  2  0
 11 12  1  0
 12 13  2  0
  2 14  1  0
 14 15  1  0
 15 16  1  0
 16 17  2  0
 17 18  1  0
 18 19  2  0
 19 20  1  0
 20 21  1  0
 20 22  2  0
 23 14  1  1
 23 24  1  0
 24 25  1  0
 25 26  1  0
 26 27  1  0
 27 28  1  0
 25 29  1  0
 29 30  1  0
 29 31  1  0
 13  4  1  0
 22 16  1  0
 30 23  1  0
 13  8  1  0
 31 23  1  0
 28 26  1  0
  3 32  1  0
  3 33  1  0
  5 34  1  0
  7 35  1  0
  9 36  1  0
 10 37  1  0
 11 38  1  0
 12 39  1  0
 15 40  1  0
 15 41  1  0
 17 42  1  0
 18 43  1  0
 19 44  1  0
 22 45  1  0
 24 46  1  0
 24 47  1  0
 25 48  1  6
 26 49  1  0
 27 50  1  0
 27 51  1  0
 28 52  1  0
 28 53  1  0
 29 54  1  1
 30 55  1  0
 30 56  1  0
 31 57  1  0
 31 58  1  0
M  CHG  1  25   1
M  END
>  <RMSD>  (13) 
0.0321278068905583

$$$$

     RDKit          3D

 48 52  0  0  0  0  0  0  0  0999 V2000
   -9.4778   -1.8278  -23.5318 C   0  0  0  0  0  0  0  0  0  0  0  0
   -8.3636   -2.1211  -22.6493 N   0  0  0  0  0  0  0  0  0  0  0  0
   -7.9840   -1.2538  -21.6639 C   0  0  0  0  0  0  0  0  0  0  0  0
   -8.4490   -0.1684  -21.4038 O   0  0  0  0  0  0  0  0  0  0  0  0
   -6.9355   -1.8700  -20.9647 N   0  0  0  0  0  0  0  0  0  0  0  0
   -6.1850   -1.1519  -19.9857 C   0  0  0  0  0  0  0  0  0  0  0  0
   -6.5396   -1.2288  -18.6670 C   0  0  0  0  0  0  0  0  0  0  0  0
   -5.9953   -0.4751  -17.6763 N   0  0  0  0  0  0  0  0  0  0  0  0
   -5.0700    0.3910  -18.0113 C   0  0  0  0  0  0  0  0  0  0  0  0
   -4.5703    0.5485  -19.3347 C   0  0  0  0  0  0  0  0  0  0  0  0
   -3.5600    1.4963  -19.6506 C   0  0  0  0  0  0  0  0  0  0  0  0
   -3.0903    1.5931  -20.9313 C   0  0  0  0  0  0  0  0  0  0  0  0
   -3.6006    0.7475  -21.9441 C   0  0  0  0  0  0  0  0  0  0  0  0
   -4.5879   -0.1646  -21.6649 C   0  0  0  0  0  0  0  0  0  0  0  0
   -5.1188   -0.2655  -20.3524 C   0  0  0  0  0  0  0  0  0  0  0  0
   -6.6958   -3.1617  -21.4286 C   0  0  0  0  0  0  0  0  0  0  0  0
   -5.9031   -3.9455  -20.9638 O   0  0  0  0  0  0  0  0  0  0  0  0
   -7.6399   -3.3629  -22.6183 C   0  0  0  0  0  0  0  0  0  0  0  0
   -8.4508   -4.6739  -22.5823 C   0  0  0  0  0  0  0  0  0  0  0  0
   -7.7025   -5.1846  -23.7770 N   0  0  0  0  0  0  0  0  0  0  0  0
   -8.6599   -5.6610  -25.0965 S   0  0  0  0  0  0  0  0  0  0  0  0
   -9.5432   -6.6960  -24.5942 O   0  0  0  0  0  0  0  0  0  0  0  0
   -9.1828   -4.4499  -25.7246 O   0  0  0  0  0  0  0  0  0  0  0  0
   -7.5586   -6.4162  -26.2721 C   0  0  0  0  0  0  0  0  0  0  0  0
   -7.4424   -7.8029  -26.3104 C   0  0  0  0  0  0  0  0  0  0  0  0
   -6.6178   -8.3877  -27.2674 C   0  0  0  0  0  0  0  0  0  0  0  0
   -5.9247   -7.5958  -28.1797 C   0  0  0  0  0  0  0  0  0  0  0  0
   -6.0577   -6.2107  -28.1363 C   0  0  0  0  0  0  0  0  0  0  0  0
   -6.8830   -5.6158  -27.1892 C   0  0  0  0  0  0  0  0  0  0  0  0
   -6.9671   -3.9009  -23.9056 C   0  0  0  0  0  0  0  0  0  0  0  0
   -9.2153   -1.0159  -24.2167 H   0  0  0  0  0  0  0  0  0  0  0  0
   -9.7385   -2.7169  -24.1113 H   0  0  0  0  0  0  0  0  0  0  0  0
  -10.3326   -1.5072  -22.9306 H   0  0  0  0  0  0  0  0  0  0  0  0
   -7.3018   -1.9376  -18.3554 H   0  0  0  0  0  0  0  0  0  0  0  0
   -4.6744    1.0239  -17.2153 H   0  0  0  0  0  0  0  0  0  0  0  0
   -3.1900    2.1449  -18.8587 H   0  0  0  0  0  0  0  0  0  0  0  0
   -2.3252    2.3241  -21.1823 H   0  0  0  0  0  0  0  0  0  0  0  0
   -3.2206    0.8336  -22.9580 H   0  0  0  0  0  0  0  0  0  0  0  0
   -4.9869   -0.8161  -22.4367 H   0  0  0  0  0  0  0  0  0  0  0  0
   -8.2151   -5.2230  -21.6788 H   0  0  0  0  0  0  0  0  0  0  0  0
   -9.5361   -4.5915  -22.7184 H   0  0  0  0  0  0  0  0  0  0  0  0
   -8.0095   -8.4074  -25.6080 H   0  0  0  0  0  0  0  0  0  0  0  0
   -6.5268   -9.4695  -27.3107 H   0  0  0  0  0  0  0  0  0  0  0  0
   -5.2840   -8.0576  -28.9276 H   0  0  0  0  0  0  0  0  0  0  0  0
   -5.5259   -5.5915  -28.8523 H   0  0  0  0  0  0  0  0  0  0  0  0
   -7.0189   -4.5391  -27.1724 H   0  0  0  0  0  0  0  0  0  0  0  0
   -7.2082   -3.3313  -24.8094 H   0  0  0  0  0  0  0  0  0  0  0  0
   -5.8911   -4.0596  -23.8162 H   0  0  0  0  0  0  0  0  0  0  0  0
  1  2  1  0
  2  3  1  0
  3  4  2  0
  3  5  1  0
  5  6  1  0
  6  7  2  0
  7  8  1  0
  8  9  2  0
  9 10  1  0
 10 11  2  0
 11 12  1  0
 12 13  2  0
 13 14  1  0
 14 15  2  0
  5 16  1  0
 16 17  2  0
 16 18  1  0
 18 19  1  0
 19 20  1  0
 20 21  1  0
 21 22  2  0
 21 23  2  0
 21 24  1  0
 24 25  2  0
 25 26  1  0
 26 27  2  0
 27 28  1  0
 28 29  2  0
 20 30  1  0
 18  2  1  0
 29 24  1  0
 15  6  1  0
 30 18  1  0
 15 10  1  0
  1 31  1  0
  1 32  1  0
  1 33  1  0
  7 34  1  0
  9 35  1  0
 11 36  1  0
 12 37  1  0
 13 38  1  0
 14 39  1  0
 19 40  1  0
 19 41  1  0
 25 42  1  0
 26 43  1  0
 27 44  1  0
 28 45  1  0
 29 46  1  0
 30 47  1  0
 30 48  1  0
M  END
>  <RMSD>  (14) 
1.5758826142476707

$$$$

     RDKit          3D

 60 65  0  0  0  0  0  0  0  0999 V2000
   -6.7689    2.6268  -23.1995 C   0  0  0  0  0  0  0  0  0  0  0  0
   -7.3394    1.4478  -23.8245 N   0  0  0  0  0  0  0  0  0  0  0  0
   -6.8483    1.0272  -25.0138 C   0  0  0  0  0  0  0  0  0  0  0  0
   -6.0279    1.6588  -25.6643 O   0  0  0  0  0  0  0  0  0  0  0  0
   -7.3662   -0.3002  -25.5769 C   0  0  0  0  0  0  0  0  0  0  0  0
   -8.1765   -1.1108  -24.6995 N   0  0  0  0  0  0  0  0  0  0  0  0
   -7.5862   -2.2910  -24.1008 C   0  0  0  0  0  0  0  0  0  0  0  0
   -8.2108   -2.6357  -22.7270 C   0  0  2  0  0  0  0  0  0  0  0  0
   -7.8433   -1.5446  -21.6940 C   0  0  0  0  0  0  0  0  0  0  0  0
   -8.3609   -0.4521  -21.5581 O   0  0  0  0  0  0  0  0  0  0  0  0
   -6.7854   -1.9981  -20.9418 N   0  0  0  0  0  0  0  0  0  0  0  0
   -6.1549   -1.1669  -19.9873 C   0  0  0  0  0  0  0  0  0  0  0  0
   -6.5468   -1.2396  -18.6759 C   0  0  0  0  0  0  0  0  0  0  0  0
   -6.0280   -0.4862  -17.6730 N   0  0  0  0  0  0  0  0  0  0  0  0
   -5.0827    0.3660  -18.0026 C   0  0  0  0  0  0  0  0  0  0  0  0
   -4.5866    0.5417  -19.3291 C   0  0  0  0  0  0  0  0  0  0  0  0
   -3.5658    1.4801  -19.6338 C   0  0  0  0  0  0  0  0  0  0  0  0
   -3.1031    1.6173  -20.9134 C   0  0  0  0  0  0  0  0  0  0  0  0
   -3.6342    0.8264  -21.9545 C   0  0  0  0  0  0  0  0  0  0  0  0
   -4.6302   -0.0809  -21.6920 C   0  0  0  0  0  0  0  0  0  0  0  0
   -5.1321   -0.2460  -20.3669 C   0  0  0  0  0  0  0  0  0  0  0  0
   -6.3183   -3.3137  -21.3152 C   0  0  0  0  0  0  0  0  0  0  0  0
   -7.5039   -3.8763  -22.1123 C   0  0  2  0  0  0  0  0  0  0  0  0
   -7.0824   -4.9912  -23.0773 C   0  0  0  0  0  0  0  0  0  0  0  0
   -6.4828   -6.1438  -22.3498 C   0  0  0  0  0  0  0  0  0  0  0  0
   -5.2491   -6.2009  -21.8632 N   0  0  0  0  0  0  0  0  0  0  0  0
   -5.1713   -7.3888  -21.2724 N   0  0  0  0  0  0  0  0  0  0  0  0
   -6.3129   -8.0121  -21.4042 N   0  0  0  0  0  0  0  0  0  0  0  0
   -7.1571   -7.2459  -22.0788 N   0  0  0  0  0  0  0  0  0  0  0  0
   -9.7135   -2.7162  -22.9302 C   0  0  0  0  0  0  0  0  0  0  0  0
  -10.5506   -3.5849  -22.2172 C   0  0  0  0  0  0  0  0  0  0  0  0
  -11.9254   -3.5055  -22.3708 C   0  0  0  0  0  0  0  0  0  0  0  0
  -12.9413   -4.5820  -21.4526 Cl  0  0  0  0  0  0  0  0  0  0  0  0
  -12.5281   -2.5820  -23.2217 C   0  0  0  0  0  0  0  0  0  0  0  0
  -11.7126   -1.7338  -23.9390 C   0  0  0  0  0  0  0  0  0  0  0  0
  -10.3259   -1.8110  -23.8129 C   0  0  0  0  0  0  0  0  0  0  0  0
   -9.5262   -0.8897  -24.6755 C   0  0  0  0  0  0  0  0  0  0  0  0
  -10.0565    0.0158  -25.3097 O   0  0  0  0  0  0  0  0  0  0  0  0
   -6.8688    3.5078  -23.8438 H   0  0  0  0  0  0  0  0  0  0  0  0
   -5.7025    2.4774  -22.9785 H   0  0  0  0  0  0  0  0  0  0  0  0
   -7.2984    2.8179  -22.2619 H   0  0  0  0  0  0  0  0  0  0  0  0
   -7.9093    0.8394  -23.2419 H   0  0  0  0  0  0  0  0  0  0  0  0
   -6.4848   -0.8662  -25.8954 H   0  0  0  0  0  0  0  0  0  0  0  0
   -7.9427   -0.0690  -26.4762 H   0  0  0  0  0  0  0  0  0  0  0  0
   -7.7292   -3.1600  -24.7568 H   0  0  0  0  0  0  0  0  0  0  0  0
   -6.5090   -2.1245  -23.9777 H   0  0  0  0  0  0  0  0  0  0  0  0
   -7.3413   -1.9319  -18.4023 H   0  0  0  0  0  0  0  0  0  0  0  0
   -4.6343    0.9640  -17.2077 H   0  0  0  0  0  0  0  0  0  0  0  0
   -3.1600    2.0835  -18.8290 H   0  0  0  0  0  0  0  0  0  0  0  0
   -2.3226    2.3352  -21.1448 H   0  0  0  0  0  0  0  0  0  0  0  0
   -3.2691    0.9554  -22.9707 H   0  0  0  0  0  0  0  0  0  0  0  0
   -5.0263   -0.6823  -22.5052 H   0  0  0  0  0  0  0  0  0  0  0  0
   -6.0777   -3.9373  -20.4482 H   0  0  0  0  0  0  0  0  0  0  0  0
   -5.4150   -3.2640  -21.9433 H   0  0  0  0  0  0  0  0  0  0  0  0
   -8.1811   -4.3299  -21.3876 H   0  0  0  0  0  0  0  0  0  0  0  0
   -6.3744   -4.6056  -23.8127 H   0  0  0  0  0  0  0  0  0  0  0  0
   -7.9377   -5.3994  -23.6148 H   0  0  0  0  0  0  0  0  0  0  0  0
  -10.1664   -4.3338  -21.5337 H   0  0  0  0  0  0  0  0  0  0  0  0
  -13.6105   -2.5488  -23.3076 H   0  0  0  0  0  0  0  0  0  0  0  0
  -12.1381   -1.0048  -24.6190 H   0  0  0  0  0  0  0  0  0  0  0  0
  1  2  1  0
  2  3  1  0
  3  4  2  0
  3  5  1  0
  5  6  1  0
  6  7  1  0
  8  7  1  6
  8  9  1  0
  9 10  2  0
  9 11  1  0
 11 12  1  0
 12 13  2  0
 13 14  1  0
 14 15  2  0
 15 16  1  0
 16 17  2  0
 17 18  1  0
 18 19  2  0
 19 20  1  0
 20 21  2  0
 11 22  1  0
 22 23  1  0
 23 24  1  0
 24 25  1  0
 25 26  1  0
 26 27  2  0
 27 28  1  0
 28 29  1  0
  8 30  1  0
 30 31  2  0
 31 32  1  0
 32 33  1  0
 32 34  2  0
 34 35  1  0
 35 36  2  0
 36 37  1  0
 37 38  2  0
 37  6  1  0
 23  8  1  0
 29 25  2  0
 36 30  1  0
 21 12  1  0
 21 16  1  0
  1 39  1  0
  1 40  1  0
  1 41  1  0
  2 42  1  0
  5 43  1  0
  5 44  1  0
  7 45  1  0
  7 46  1  0
 13 47  1  0
 15 48  1  0
 17 49  1  0
 18 50  1  0
 19 51  1  0
 20 52  1  0
 22 53  1  0
 22 54  1  0
 23 55  1  1
 24 56  1  0
 24 57  1  0
 31 58  1  0
 34 59  1  0
 35 60  1  0
M  CHG  1  28  -1
M  END
>  <RMSD>  (15) 
0.06434607347116045

$$$$

     RDKit          3D

 36 38  0  0  0  0  0  0  0  0999 V2000
   -9.4586   -2.0053  -20.5719 O   0  0  0  0  0  0  0  0  0  0  0  0
   -8.3249   -2.4113  -20.7490 C   0  0  0  0  0  0  0  0  0  0  0  0
   -7.2259   -1.4519  -21.1482 C   0  0  0  0  0  0  0  0  0  0  0  0
   -6.2911   -1.0205  -20.0358 C   0  0  0  0  0  0  0  0  0  0  0  0
   -6.5643   -1.1981  -18.7021 C   0  0  0  0  0  0  0  0  0  0  0  0
   -5.9244   -0.5818  -17.6702 N   0  0  0  0  0  0  0  0  0  0  0  0
   -4.9826    0.2696  -17.9863 C   0  0  0  0  0  0  0  0  0  0  0  0
   -4.5689    0.5337  -19.3237 C   0  0  0  0  0  0  0  0  0  0  0  0
   -3.6372    1.5509  -19.6477 C   0  0  0  0  0  0  0  0  0  0  0  0
   -3.1631    1.6651  -20.9259 C   0  0  0  0  0  0  0  0  0  0  0  0
   -3.5943    0.7687  -21.9314 C   0  0  0  0  0  0  0  0  0  0  0  0
   -4.5652   -0.1658  -21.6589 C   0  0  0  0  0  0  0  0  0  0  0  0
   -5.1361   -0.2414  -20.3610 C   0  0  0  0  0  0  0  0  0  0  0  0
   -7.9665   -3.7281  -20.5781 N   0  0  0  0  0  0  0  0  0  0  0  0
   -9.0442   -4.6997  -20.4530 C   0  0  0  0  0  0  0  0  0  0  0  0
   -9.6555   -5.1082  -21.7699 C   0  0  0  0  0  0  0  0  0  0  0  0
   -8.9622   -5.3622  -22.8810 C   0  0  0  0  0  0  0  0  0  0  0  0
   -7.4961   -5.5246  -22.9599 C   0  0  0  0  0  0  0  0  0  0  0  0
   -6.5624   -5.1608  -22.0753 C   0  0  0  0  0  0  0  0  0  0  0  0
   -6.6470   -4.2594  -20.8716 C   0  0  0  0  0  0  0  0  0  0  0  0
   -6.6819   -1.8776  -21.9972 H   0  0  0  0  0  0  0  0  0  0  0  0
   -7.7516   -0.5751  -21.5388 H   0  0  0  0  0  0  0  0  0  0  0  0
   -7.3627   -1.8537  -18.3793 H   0  0  0  0  0  0  0  0  0  0  0  0
   -4.4834    0.7775  -17.1609 H   0  0  0  0  0  0  0  0  0  0  0  0
   -3.3226    2.2294  -18.8584 H   0  0  0  0  0  0  0  0  0  0  0  0
   -2.4457    2.4405  -21.1812 H   0  0  0  0  0  0  0  0  0  0  0  0
   -3.1682    0.8320  -22.9295 H   0  0  0  0  0  0  0  0  0  0  0  0
   -4.9070   -0.8244  -22.4551 H   0  0  0  0  0  0  0  0  0  0  0  0
   -8.6194   -5.5717  -19.9390 H   0  0  0  0  0  0  0  0  0  0  0  0
   -9.8316   -4.2701  -19.8268 H   0  0  0  0  0  0  0  0  0  0  0  0
  -10.7309   -5.2679  -21.7781 H   0  0  0  0  0  0  0  0  0  0  0  0
   -9.5003   -5.5261  -23.8117 H   0  0  0  0  0  0  0  0  0  0  0  0
   -7.1465   -6.0544  -23.8454 H   0  0  0  0  0  0  0  0  0  0  0  0
   -5.5503   -5.5493  -22.2035 H   0  0  0  0  0  0  0  0  0  0  0  0
   -5.9644   -3.4181  -21.0051 H   0  0  0  0  0  0  0  0  0  0  0  0
   -6.2558   -4.8017  -19.9956 H   0  0  0  0  0  0  0  0  0  0  0  0
  1  2  2  0
  2  3  1  0
  3  4  1  0
  4  5  2  0
  5  6  1  0
  6  7  2  0
  7  8  1  0
  8  9  2  0
  9 10  1  0
 10 11  2  0
 11 12  1  0
 12 13  2  0
  2 14  1  0
 14 15  1  0
 15 16  1  0
 16 17  2  0
 17 18  1  0
 18 19  2  0
 19 20  1  0
 13  4  1  0
 20 14  1  0
 13  8  1  0
  3 21  1  0
  3 22  1  0
  5 23  1  0
  7 24  1  0
  9 25  1  0
 10 26  1  0
 11 27  1  0
 12 28  1  0
 15 29  1  0
 15 30  1  0
 16 31  1  0
 17 32  1  0
 18 33  1  0
 19 34  1  0
 20 35  1  0
 20 36  1  0
M  END
>  <RMSD>  (16) 
0.1529369763986717

$$$$

     RDKit          3D

 46 47  0  0  0  0  0  0  0  0999 V2000
   -6.8653   -3.3418  -21.4138 C   0  0  0  0  0  0  0  0  0  0  0  0
   -6.9914   -3.1153  -22.9188 C   0  0  2  0  0  0  0  0  0  0  0  0
   -6.4101   -1.8295  -23.2996 N   0  0  0  0  0  0  0  0  0  0  0  0
   -6.3266   -1.4904  -24.6222 C   0  0  0  0  0  0  0  0  0  0  0  0
   -6.4245   -2.3202  -25.5089 O   0  0  0  0  0  0  0  0  0  0  0  0
   -6.0935   -0.0131  -24.9485 C   0  0  0  0  0  0  0  0  0  0  0  0
   -7.3395    0.7315  -24.7960 O   0  0  0  0  0  0  0  0  0  0  0  0
   -7.1482    2.3154  -25.1630 S   0  0  0  0  0  0  0  0  0  0  0  0
   -8.6434    2.9068  -24.8903 N   0  0  0  0  0  0  0  0  0  0  0  0
   -6.2632    2.8932  -24.1812 O   0  0  0  0  0  0  0  0  0  0  0  0
   -6.8893    2.4339  -26.5784 O   0  0  0  0  0  0  0  0  0  0  0  0
   -8.4580   -3.2137  -23.3415 C   0  0  0  0  0  0  0  0  0  0  0  0
   -8.9510   -4.4080  -23.8694 C   0  0  0  0  0  0  0  0  0  0  0  0
  -10.2937   -4.4829  -24.2227 C   0  0  0  0  0  0  0  0  0  0  0  0
  -10.9054   -5.9491  -24.9378 Cl  0  0  0  0  0  0  0  0  0  0  0  0
  -11.1517   -3.4099  -24.0305 C   0  0  0  0  0  0  0  0  0  0  0  0
  -10.6719   -2.2047  -23.5023 C   0  0  0  0  0  0  0  0  0  0  0  0
  -11.5847   -1.0372  -23.3467 C   0  0  0  0  0  0  0  0  0  0  0  0
  -12.9186   -1.2426  -22.9738 C   0  0  0  0  0  0  0  0  0  0  0  0
  -13.8183   -0.1929  -22.8686 C   0  0  0  0  0  0  0  0  0  0  0  0
  -13.3735    1.0994  -23.1334 C   0  0  0  0  0  0  0  0  0  0  0  0
  -14.5324    2.4508  -23.0629 S   0  0  0  0  0  0  0  0  0  0  0  0
  -15.1385    2.6437  -24.5926 N   0  0  0  0  0  0  0  0  0  0  0  0
  -15.6486    2.0389  -22.2377 O   0  0  0  0  0  0  0  0  0  0  0  0
  -13.7775    3.6665  -22.8186 O   0  0  0  0  0  0  0  0  0  0  0  0
  -12.0464    1.3389  -23.4891 C   0  0  0  0  0  0  0  0  0  0  0  0
  -11.1565    0.2765  -23.5932 C   0  0  0  0  0  0  0  0  0  0  0  0
   -9.3182   -2.1294  -23.1649 C   0  0  0  0  0  0  0  0  0  0  0  0
   -7.2708   -4.3263  -21.1559 H   0  0  0  0  0  0  0  0  0  0  0  0
   -7.4452   -2.5910  -20.8602 H   0  0  0  0  0  0  0  0  0  0  0  0
   -5.8212   -3.3089  -21.0843 H   0  0  0  0  0  0  0  0  0  0  0  0
   -6.4452   -3.9007  -23.4540 H   0  0  0  0  0  0  0  0  0  0  0  0
   -6.2473   -1.1372  -22.5842 H   0  0  0  0  0  0  0  0  0  0  0  0
   -5.3374    0.4480  -24.3042 H   0  0  0  0  0  0  0  0  0  0  0  0
   -5.7829    0.0426  -25.9947 H   0  0  0  0  0  0  0  0  0  0  0  0
   -9.3369    2.5507  -25.5382 H   0  0  0  0  0  0  0  0  0  0  0  0
   -8.8945    2.8975  -23.9090 H   0  0  0  0  0  0  0  0  0  0  0  0
   -8.3092   -5.2766  -24.0107 H   0  0  0  0  0  0  0  0  0  0  0  0
  -12.1910   -3.5065  -24.3267 H   0  0  0  0  0  0  0  0  0  0  0  0
  -13.2523   -2.2461  -22.7314 H   0  0  0  0  0  0  0  0  0  0  0  0
  -14.8544   -0.3714  -22.5915 H   0  0  0  0  0  0  0  0  0  0  0  0
  -15.6695    1.8413  -24.9095 H   0  0  0  0  0  0  0  0  0  0  0  0
  -14.4211    2.9684  -25.2310 H   0  0  0  0  0  0  0  0  0  0  0  0
  -11.7216    2.3614  -23.6690 H   0  0  0  0  0  0  0  0  0  0  0  0
  -10.1186    0.4605  -23.8735 H   0  0  0  0  0  0  0  0  0  0  0  0
   -8.9224   -1.1983  -22.7590 H   0  0  0  0  0  0  0  0  0  0  0  0
  1  2  1  0
  2  3  1  0
  3  4  1  0
  4  5  2  0
  4  6  1  0
  6  7  1  0
  7  8  1  0
  8  9  1  0
  8 10  2  0
  8 11  2  0
  2 12  1  0
 12 13  2  0
 13 14  1  0
 14 15  1  0
 14 16  2  0
 16 17  1  0
 17 18  1  0
 18 19  2  0
 19 20  1  0
 20 21  2  0
 21 22  1  0
 22 23  1  0
 22 24  2  0
 22 25  2  0
 21 26  1  0
 26 27  2  0
 17 28  2  0
 28 12  1  0
 27 18  1  0
  1 29  1  0
  1 30  1  0
  1 31  1  0
  2 32  1  6
  3 33  1  0
  6 34  1  0
  6 35  1  0
  9 36  1  0
  9 37  1  0
 13 38  1  0
 16 39  1  0
 19 40  1  0
 20 41  1  0
 23 42  1  0
 23 43  1  0
 26 44  1  0
 27 45  1  0
 28 46  1  0
M  END
>  <RMSD>  (17) 
0.0347668856784269

$$$$

     RDKit          3D

 66 71  0  0  0  0  0  0  0  0999 V2000
   -6.7620    2.6518  -23.2218 C   0  0  0  0  0  0  0  0  0  0  0  0
   -7.3091    1.4753  -23.8589 N   0  0  0  0  0  0  0  0  0  0  0  0
   -6.8314    1.0648  -25.0525 C   0  0  0  0  0  0  0  0  0  0  0  0
   -6.0136    1.6978  -25.7057 O   0  0  0  0  0  0  0  0  0  0  0  0
   -7.3261   -0.2862  -25.5804 C   0  0  0  0  0  0  0  0  0  0  0  0
   -8.1442   -1.0827  -24.6896 N   0  0  0  0  0  0  0  0  0  0  0  0
   -7.5812   -2.2956  -24.1213 C   0  0  0  0  0  0  0  0  0  0  0  0
   -8.2257   -2.6436  -22.7561 C   0  0  2  0  0  0  0  0  0  0  0  0
   -7.8758   -1.5396  -21.7268 C   0  0  0  0  0  0  0  0  0  0  0  0
   -8.4065   -0.4530  -21.5942 O   0  0  0  0  0  0  0  0  0  0  0  0
   -6.8193   -1.9872  -20.9653 N   0  0  0  0  0  0  0  0  0  0  0  0
   -6.1794   -1.1543  -20.0061 C   0  0  0  0  0  0  0  0  0  0  0  0
   -6.5467   -1.2422  -18.6879 C   0  0  0  0  0  0  0  0  0  0  0  0
   -6.0137   -0.5016  -17.6834 N   0  0  0  0  0  0  0  0  0  0  0  0
   -5.0743    0.3599  -18.0004 C   0  0  0  0  0  0  0  0  0  0  0  0
   -4.5714    0.5405  -19.3227 C   0  0  0  0  0  0  0  0  0  0  0  0
   -3.5532    1.4880  -19.6290 C   0  0  0  0  0  0  0  0  0  0  0  0
   -3.0969    1.6221  -20.9137 C   0  0  0  0  0  0  0  0  0  0  0  0
   -3.6250    0.8178  -21.9515 C   0  0  0  0  0  0  0  0  0  0  0  0
   -4.6193   -0.0908  -21.6832 C   0  0  0  0  0  0  0  0  0  0  0  0
   -5.1280   -0.2478  -20.3629 C   0  0  0  0  0  0  0  0  0  0  0  0
   -6.3435   -3.3052  -21.3528 C   0  0  0  0  0  0  0  0  0  0  0  0
   -7.5625   -3.8855  -22.0897 C   0  0  2  0  0  0  0  0  0  0  0  0
   -7.3449   -5.1395  -22.9780 C   0  0  0  0  0  0  0  0  0  0  0  0
   -5.9557   -5.3542  -23.5366 C   0  0  0  0  0  0  0  0  0  0  0  0
   -4.9452   -5.8392  -22.7009 C   0  0  0  0  0  0  0  0  0  0  0  0
   -3.6472   -6.0151  -23.1636 C   0  0  0  0  0  0  0  0  0  0  0  0
   -3.3307   -5.7139  -24.4832 C   0  0  0  0  0  0  0  0  0  0  0  0
   -4.3284   -5.2479  -25.3327 C   0  0  0  0  0  0  0  0  0  0  0  0
   -5.6280   -5.0737  -24.8628 C   0  0  0  0  0  0  0  0  0  0  0  0
   -9.7214   -2.7153  -22.9792 C   0  0  0  0  0  0  0  0  0  0  0  0
  -10.5483   -3.5911  -22.2654 C   0  0  0  0  0  0  0  0  0  0  0  0
  -11.9233   -3.5115  -22.4010 C   0  0  0  0  0  0  0  0  0  0  0  0
  -12.9237   -4.5739  -21.4497 Cl  0  0  0  0  0  0  0  0  0  0  0  0
  -12.5228   -2.5850  -23.2570 C   0  0  0  0  0  0  0  0  0  0  0  0
  -11.7085   -1.7321  -23.9820 C   0  0  0  0  0  0  0  0  0  0  0  0
  -10.3194   -1.7921  -23.8539 C   0  0  0  0  0  0  0  0  0  0  0  0
   -9.4896   -0.8359  -24.6642 C   0  0  0  0  0  0  0  0  0  0  0  0
   -9.9712    0.1242  -25.2514 O   0  0  0  0  0  0  0  0  0  0  0  0
   -5.6990    2.5101  -22.9997 H   0  0  0  0  0  0  0  0  0  0  0  0
   -7.2917    2.8053  -22.2804 H   0  0  0  0  0  0  0  0  0  0  0  0
   -6.8650    3.5427  -23.8493 H   0  0  0  0  0  0  0  0  0  0  0  0
   -8.1011    1.0183  -23.4273 H   0  0  0  0  0  0  0  0  0  0  0  0
   -6.4308   -0.8616  -25.8339 H   0  0  0  0  0  0  0  0  0  0  0  0
   -7.8627   -0.1090  -26.5192 H   0  0  0  0  0  0  0  0  0  0  0  0
   -7.7271   -3.1346  -24.8147 H   0  0  0  0  0  0  0  0  0  0  0  0
   -6.5064   -2.1464  -23.9926 H   0  0  0  0  0  0  0  0  0  0  0  0
   -7.3284   -1.9372  -18.3911 H   0  0  0  0  0  0  0  0  0  0  0  0
   -4.6572    0.9646  -17.1924 H   0  0  0  0  0  0  0  0  0  0  0  0
   -3.1551    2.1097  -18.8276 H   0  0  0  0  0  0  0  0  0  0  0  0
   -2.3289    2.3532  -21.1553 H   0  0  0  0  0  0  0  0  0  0  0  0
   -3.2735    0.9434  -22.9747 H   0  0  0  0  0  0  0  0  0  0  0  0
   -5.0335   -0.7003  -22.4830 H   0  0  0  0  0  0  0  0  0  0  0  0
   -5.4557   -3.2601  -22.0056 H   0  0  0  0  0  0  0  0  0  0  0  0
   -6.0709   -3.8816  -20.4664 H   0  0  0  0  0  0  0  0  0  0  0  0
   -8.2497   -4.1751  -21.2891 H   0  0  0  0  0  0  0  0  0  0  0  0
   -7.6121   -6.0286  -22.3924 H   0  0  0  0  0  0  0  0  0  0  0  0
   -8.0731   -5.1157  -23.7971 H   0  0  0  0  0  0  0  0  0  0  0  0
   -5.1845   -6.0547  -21.6625 H   0  0  0  0  0  0  0  0  0  0  0  0
   -2.8800   -6.3777  -22.4881 H   0  0  0  0  0  0  0  0  0  0  0  0
   -2.3185   -5.8537  -24.8487 H   0  0  0  0  0  0  0  0  0  0  0  0
   -4.0999   -5.0259  -26.3705 H   0  0  0  0  0  0  0  0  0  0  0  0
   -6.3996   -4.7205  -25.5430 H   0  0  0  0  0  0  0  0  0  0  0  0
  -10.1252   -4.3421  -21.6062 H   0  0  0  0  0  0  0  0  0  0  0  0
  -13.6064   -2.5364  -23.3322 H   0  0  0  0  0  0  0  0  0  0  0  0
  -12.1374   -1.0005  -24.6596 H   0  0  0  0  0  0  0  0  0  0  0  0
  1  2  1  0
  2  3  1  0
  3  4  2  0
  3  5  1  0
  5  6  1  0
  6  7  1  0
  8  7  1  6
  8  9  1  0
  9 10  2  0
  9 11  1  0
 11 12  1  0
 12 13  2  0
 13 14  1  0
 14 15  2  0
 15 16  1  0
 16 17  2  0
 17 18  1  0
 18 19  2  0
 19 20  1  0
 20 21  2  0
 11 22  1  0
 22 23  1  0
 23 24  1  0
 24 25  1  0
 25 26  2  0
 26 27  1  0
 27 28  2  0
 28 29  1  0
 29 30  2  0
  8 31  1  0
 31 32  2  0
 32 33  1  0
 33 34  1  0
 33 35  2  0
 35 36  1  0
 36 37  2  0
 37 38  1  0
 38 39  2  0
 38  6  1  0
 23  8  1  0
 30 25  1  0
 37 31  1  0
 21 12  1  0
 21 16  1  0
  1 40  1  0
  1 41  1  0
  1 42  1  0
  2 43  1  0
  5 44  1  0
  5 45  1  0
  7 46  1  0
  7 47  1  0
 13 48  1  0
 15 49  1  0
 17 50  1  0
 18 51  1  0
 19 52  1  0
 20 53  1  0
 22 54  1  0
 22 55  1  0
 23 56  1  1
 24 57  1  0
 24 58  1  0
 26 59  1  0
 27 60  1  0
 28 61  1  0
 29 62  1  0
 30 63  1  0
 32 64  1  0
 35 65  1  0
 36 66  1  0
M  END
>  <RMSD>  (18) 
0.057881857830002374

$$$$

     RDKit          3D

 60 64  0  0  0  0  0  0  0  0999 V2000
   -6.7629    2.6517  -23.2213 C   0  0  0  0  0  0  0  0  0  0  0  0
   -7.3106    1.4756  -23.8584 N   0  0  0  0  0  0  0  0  0  0  0  0
   -6.8335    1.0648  -25.0520 C   0  0  0  0  0  0  0  0  0  0  0  0
   -6.0155    1.6974  -25.7052 O   0  0  0  0  0  0  0  0  0  0  0  0
   -7.3287   -0.2860  -25.5801 C   0  0  0  0  0  0  0  0  0  0  0  0
   -8.1474   -1.0827  -24.6894 N   0  0  0  0  0  0  0  0  0  0  0  0
   -7.5847   -2.2952  -24.1199 C   0  0  0  0  0  0  0  0  0  0  0  0
   -8.2305   -2.6432  -22.7546 C   0  0  2  0  0  0  0  0  0  0  0  0
   -7.8765   -1.5405  -21.7248 C   0  0  0  0  0  0  0  0  0  0  0  0
   -8.4061   -0.4540  -21.5913 O   0  0  0  0  0  0  0  0  0  0  0  0
   -6.8131   -1.9834  -20.9688 N   0  0  0  0  0  0  0  0  0  0  0  0
   -6.1780   -1.1528  -20.0050 C   0  0  0  0  0  0  0  0  0  0  0  0
   -6.5470   -1.2426  -18.6875 C   0  0  0  0  0  0  0  0  0  0  0  0
   -6.0146   -0.5017  -17.6826 N   0  0  0  0  0  0  0  0  0  0  0  0
   -5.0748    0.3599  -17.9998 C   0  0  0  0  0  0  0  0  0  0  0  0
   -4.5714    0.5407  -19.3221 C   0  0  0  0  0  0  0  0  0  0  0  0
   -3.5533    1.4876  -19.6291 C   0  0  0  0  0  0  0  0  0  0  0  0
   -3.0976    1.6214  -20.9140 C   0  0  0  0  0  0  0  0  0  0  0  0
   -3.6260    0.8174  -21.9517 C   0  0  0  0  0  0  0  0  0  0  0  0
   -4.6203   -0.0910  -21.6832 C   0  0  0  0  0  0  0  0  0  0  0  0
   -5.1276   -0.2473  -20.3622 C   0  0  0  0  0  0  0  0  0  0  0  0
   -6.3474   -3.3054  -21.3497 C   0  0  0  0  0  0  0  0  0  0  0  0
   -7.5592   -3.8808  -22.0981 C   0  0  2  0  0  0  0  0  0  0  0  0
   -7.2069   -5.0448  -23.0095 C   0  0  0  0  0  0  0  0  0  0  0  0
   -8.3518   -5.4929  -23.6974 O   0  0  0  0  0  0  0  0  0  0  0  0
   -8.0344   -6.5158  -24.6109 C   0  0  0  0  0  0  0  0  0  0  0  0
   -9.7253   -2.7153  -22.9786 C   0  0  0  0  0  0  0  0  0  0  0  0
  -10.5517   -3.5835  -22.2556 C   0  0  0  0  0  0  0  0  0  0  0  0
  -11.9261   -3.5071  -22.3951 C   0  0  0  0  0  0  0  0  0  0  0  0
  -12.9272   -4.5712  -21.4473 Cl  0  0  0  0  0  0  0  0  0  0  0  0
  -12.5254   -2.5832  -23.2550 C   0  0  0  0  0  0  0  0  0  0  0  0
  -11.7111   -1.7310  -23.9804 C   0  0  0  0  0  0  0  0  0  0  0  0
  -10.3223   -1.7932  -23.8550 C   0  0  0  0  0  0  0  0  0  0  0  0
   -9.4930   -0.8359  -24.6634 C   0  0  0  0  0  0  0  0  0  0  0  0
   -9.9732    0.1252  -25.2494 O   0  0  0  0  0  0  0  0  0  0  0  0
   -6.8656    3.5426  -23.8489 H   0  0  0  0  0  0  0  0  0  0  0  0
   -7.2925    2.8055  -22.2798 H   0  0  0  0  0  0  0  0  0  0  0  0
   -5.6999    2.5096  -22.9994 H   0  0  0  0  0  0  0  0  0  0  0  0
   -8.1026    1.0188  -23.4260 H   0  0  0  0  0  0  0  0  0  0  0  0
   -6.4330   -0.8606  -25.8341 H   0  0  0  0  0  0  0  0  0  0  0  0
   -7.8659   -0.1087  -26.5185 H   0  0  0  0  0  0  0  0  0  0  0  0
   -6.5105   -2.1352  -23.9819 H   0  0  0  0  0  0  0  0  0  0  0  0
   -7.7231   -3.1359  -24.8133 H   0  0  0  0  0  0  0  0  0  0  0  0
   -7.3290   -1.9376  -18.3911 H   0  0  0  0  0  0  0  0  0  0  0  0
   -4.6573    0.9644  -17.1922 H   0  0  0  0  0  0  0  0  0  0  0  0
   -3.1550    2.1093  -18.8278 H   0  0  0  0  0  0  0  0  0  0  0  0
   -2.3295    2.3522  -21.1559 H   0  0  0  0  0  0  0  0  0  0  0  0
   -3.2748    0.9426  -22.9750 H   0  0  0  0  0  0  0  0  0  0  0  0
   -5.0345   -0.7013  -22.4822 H   0  0  0  0  0  0  0  0  0  0  0  0
   -5.4584   -3.2806  -22.0056 H   0  0  0  0  0  0  0  0  0  0  0  0
   -6.0808   -3.8845  -20.4630 H   0  0  0  0  0  0  0  0  0  0  0  0
   -8.2454   -4.2531  -21.3375 H   0  0  0  0  0  0  0  0  0  0  0  0
   -6.4393   -4.7282  -23.7305 H   0  0  0  0  0  0  0  0  0  0  0  0
   -6.7750   -5.8737  -22.4241 H   0  0  0  0  0  0  0  0  0  0  0  0
   -8.9604   -6.8551  -25.0827 H   0  0  0  0  0  0  0  0  0  0  0  0
   -7.3444   -6.1682  -25.3966 H   0  0  0  0  0  0  0  0  0  0  0  0
   -7.5554   -7.3725  -24.1122 H   0  0  0  0  0  0  0  0  0  0  0  0
  -10.1259   -4.3351  -21.5984 H   0  0  0  0  0  0  0  0  0  0  0  0
  -13.6090   -2.5345  -23.3302 H   0  0  0  0  0  0  0  0  0  0  0  0
  -12.1398   -0.9986  -24.6574 H   0  0  0  0  0  0  0  0  0  0  0  0
  1  2  1  0
  2  3  1  0
  3  4  2  0
  3  5  1  0
  5  6  1  0
  6  7  1  0
  8  7  1  6
  8  9  1  0
  9 10  2  0
  9 11  1  0
 11 12  1  0
 12 13  2  0
 13 14  1  0
 14 15  2  0
 15 16  1  0
 16 17  2  0
 17 18  1  0
 18 19  2  0
 19 20  1  0
 20 21  2  0
 11 22  1  0
 22 23  1  0
 23 24  1  0
 24 25  1  0
 25 26  1  0
  8 27  1  0
 27 28  2  0
 28 29  1  0
 29 30  1  0
 29 31  2  0
 31 32  1  0
 32 33  2  0
 33 34  1  0
 34 35  2  0
 34  6  1  0
 23  8  1  0
 33 27  1  0
 21 12  1  0
 21 16  1  0
  1 36  1  0
  1 37  1  0
  1 38  1  0
  2 39  1  0
  5 40  1  0
  5 41  1  0
  7 42  1  0
  7 43  1  0
 13 44  1  0
 15 45  1  0
 17 46  1  0
 18 47  1  0
 19 48  1  0
 20 49  1  0
 22 50  1  0
 22 51  1  0
 23 52  1  1
 24 53  1  0
 24 54  1  0
 26 55  1  0
 26 56  1  0
 26 57  1  0
 28 58  1  0
 31 59  1  0
 32 60  1  0
M  END
>  <RMSD>  (19) 
0.05748075434404469

$$$$

     RDKit          3D

 61 66  0  0  0  0  0  0  0  0999 V2000
   -6.6789   -7.2425  -23.0842 C   0  0  0  0  0  0  0  0  0  0  0  0
   -6.9557   -6.1403  -22.2610 O   0  0  0  0  0  0  0  0  0  0  0  0
   -7.3700   -5.0185  -22.9979 C   0  0  0  0  0  0  0  0  0  0  0  0
   -7.6266   -3.8780  -22.0287 C   0  0  1  0  0  0  0  0  0  0  0  0
   -6.3605   -3.3208  -21.3532 C   0  0  0  0  0  0  0  0  0  0  0  0
   -6.7937   -1.9896  -20.9568 N   0  0  0  0  0  0  0  0  0  0  0  0
   -6.1588   -1.1726  -19.9911 C   0  0  0  0  0  0  0  0  0  0  0  0
   -6.5541   -1.2345  -18.6792 C   0  0  0  0  0  0  0  0  0  0  0  0
   -6.0199   -0.4878  -17.6803 N   0  0  0  0  0  0  0  0  0  0  0  0
   -5.0695    0.3563  -18.0063 C   0  0  0  0  0  0  0  0  0  0  0  0
   -4.5704    0.5286  -19.3298 C   0  0  0  0  0  0  0  0  0  0  0  0
   -3.5606    1.4810  -19.6326 C   0  0  0  0  0  0  0  0  0  0  0  0
   -3.1043    1.6240  -20.9149 C   0  0  0  0  0  0  0  0  0  0  0  0
   -3.6354    0.8273  -21.9527 C   0  0  0  0  0  0  0  0  0  0  0  0
   -4.6213   -0.0931  -21.6872 C   0  0  0  0  0  0  0  0  0  0  0  0
   -5.1177   -0.2661  -20.3628 C   0  0  0  0  0  0  0  0  0  0  0  0
   -7.9861   -1.5937  -21.5317 C   0  0  0  0  0  0  0  0  0  0  0  0
   -8.6214   -0.6184  -21.1995 O   0  0  0  0  0  0  0  0  0  0  0  0
   -8.3278   -2.6282  -22.6311 C   0  0  1  0  0  0  0  0  0  0  0  0
   -7.6707   -2.2380  -23.9850 C   0  0  0  0  0  0  0  0  0  0  0  0
   -8.3601   -1.1408  -24.6337 N   0  0  0  0  0  0  0  0  0  0  0  0
   -7.6656    0.0633  -25.0702 C   0  0  0  0  0  0  0  0  0  0  0  0
   -7.9937    1.2693  -24.2358 C   0  0  0  0  0  0  0  0  0  0  0  0
   -7.2738    1.9844  -23.3330 C   0  0  0  0  0  0  0  0  0  0  0  0
   -8.0371    3.0765  -22.9713 N   0  0  0  0  0  0  0  0  0  0  0  0
   -9.2007    3.0096  -23.6247 C   0  0  0  0  0  0  0  0  0  0  0  0
   -9.2167    1.9025  -24.3669 N   0  0  0  0  0  0  0  0  0  0  0  0
   -9.7090   -1.1759  -24.8157 C   0  0  0  0  0  0  0  0  0  0  0  0
  -10.2786   -0.4139  -25.5998 O   0  0  0  0  0  0  0  0  0  0  0  0
  -10.4624   -2.1073  -23.9224 C   0  0  0  0  0  0  0  0  0  0  0  0
  -11.8467   -2.1887  -24.0859 C   0  0  0  0  0  0  0  0  0  0  0  0
  -12.6300   -2.8243  -23.1401 C   0  0  0  0  0  0  0  0  0  0  0  0
  -11.9986   -3.4040  -22.0372 C   0  0  0  0  0  0  0  0  0  0  0  0
  -12.9724   -4.1510  -20.7972 Cl  0  0  0  0  0  0  0  0  0  0  0  0
  -10.6232   -3.3664  -21.8804 C   0  0  0  0  0  0  0  0  0  0  0  0
   -9.8218   -2.7370  -22.8435 C   0  0  0  0  0  0  0  0  0  0  0  0
   -5.8825   -7.0150  -23.8096 H   0  0  0  0  0  0  0  0  0  0  0  0
   -6.3469   -8.0603  -22.4395 H   0  0  0  0  0  0  0  0  0  0  0  0
   -7.5704   -7.5636  -23.6449 H   0  0  0  0  0  0  0  0  0  0  0  0
   -8.2891   -5.2387  -23.5692 H   0  0  0  0  0  0  0  0  0  0  0  0
   -6.5894   -4.7339  -23.7277 H   0  0  0  0  0  0  0  0  0  0  0  0
   -8.2528   -4.2757  -21.2243 H   0  0  0  0  0  0  0  0  0  0  0  0
   -5.5074   -3.2898  -22.0492 H   0  0  0  0  0  0  0  0  0  0  0  0
   -6.0544   -3.9138  -20.4882 H   0  0  0  0  0  0  0  0  0  0  0  0
   -7.3526   -1.9152  -18.3903 H   0  0  0  0  0  0  0  0  0  0  0  0
   -4.6446    0.9651  -17.2058 H   0  0  0  0  0  0  0  0  0  0  0  0
   -3.1647    2.0926  -18.8259 H   0  0  0  0  0  0  0  0  0  0  0  0
   -2.3311    2.3522  -21.1470 H   0  0  0  0  0  0  0  0  0  0  0  0
   -3.2736    0.9576  -22.9695 H   0  0  0  0  0  0  0  0  0  0  0  0
   -5.0312   -0.6879  -22.4981 H   0  0  0  0  0  0  0  0  0  0  0  0
   -6.6245   -1.9514  -23.8252 H   0  0  0  0  0  0  0  0  0  0  0  0
   -7.6999   -3.1055  -24.6570 H   0  0  0  0  0  0  0  0  0  0  0  0
   -7.9498    0.2382  -26.1138 H   0  0  0  0  0  0  0  0  0  0  0  0
   -6.5925   -0.1350  -25.0662 H   0  0  0  0  0  0  0  0  0  0  0  0
   -6.3086    1.8176  -22.8779 H   0  0  0  0  0  0  0  0  0  0  0  0
   -7.7312    3.8273  -22.3643 H   0  0  0  0  0  0  0  0  0  0  0  0
  -10.0038    3.7185  -23.5298 H   0  0  0  0  0  0  0  0  0  0  0  0
   -9.9733    1.5061  -24.9243 H   0  0  0  0  0  0  0  0  0  0  0  0
  -12.2927   -1.7102  -24.9525 H   0  0  0  0  0  0  0  0  0  0  0  0
  -13.7134   -2.8398  -23.2301 H   0  0  0  0  0  0  0  0  0  0  0  0
  -10.1915   -3.8045  -20.9858 H   0  0  0  0  0  0  0  0  0  0  0  0
  1  2  1  0
  2  3  1  0
  3  4  1  0
  4  5  1  0
  5  6  1  0
  6  7  1  0
  7  8  2  0
  8  9  1  0
  9 10  2  0
 10 11  1  0
 11 12  2  0
 12 13  1  0
 13 14  2  0
 14 15  1  0
 15 16  2  0
  6 17  1  0
 17 18  2  0
 17 19  1  0
 19 20  1  6
 20 21  1  0
 21 22  1  0
 22 23  1  0
 23 24  2  0
 24 25  1  0
 25 26  2  0
 26 27  1  0
 21 28  1  0
 28 29  2  0
 28 30  1  0
 30 31  2  0
 31 32  1  0
 32 33  2  0
 33 34  1  0
 33 35  1  0
 35 36  2  0
 19  4  1  0
 27 23  1  0
 36 30  1  0
 16  7  1  0
 36 19  1  0
 16 11  1  0
  1 37  1  0
  1 38  1  0
  1 39  1  0
  3 40  1  0
  3 41  1  0
  4 42  1  1
  5 43  1  0
  5 44  1  0
  8 45  1  0
 10 46  1  0
 12 47  1  0
 13 48  1  0
 14 49  1  0
 15 50  1  0
 20 51  1  0
 20 52  1  0
 22 53  1  0
 22 54  1  0
 24 55  1  0
 25 56  1  0
 26 57  1  0
 27 58  1  0
 31 59  1  0
 32 60  1  0
 35 61  1  0
M  CHG  1  25   1
M  END
>  <RMSD>  (20) 
0.0649687130741067

$$$$

     RDKit          3D

 67 71  0  0  0  0  0  0  0  0999 V2000
   -6.7696    2.6166  -23.2000 C   0  0  0  0  0  0  0  0  0  0  0  0
   -7.3275    1.4316  -23.8217 N   0  0  0  0  0  0  0  0  0  0  0  0
   -6.8471    1.0208  -25.0157 C   0  0  0  0  0  0  0  0  0  0  0  0
   -6.0307    1.6606  -25.6669 O   0  0  0  0  0  0  0  0  0  0  0  0
   -7.3634   -0.3103  -25.5778 C   0  0  0  0  0  0  0  0  0  0  0  0
   -8.1677   -1.1182  -24.6881 N   0  0  0  0  0  0  0  0  0  0  0  0
   -7.5793   -2.3106  -24.1060 C   0  0  0  0  0  0  0  0  0  0  0  0
   -8.2112   -2.6533  -22.7335 C   0  0  2  0  0  0  0  0  0  0  0  0
   -7.8550   -1.5407  -21.7147 C   0  0  0  0  0  0  0  0  0  0  0  0
   -8.3783   -0.4502  -21.5914 O   0  0  0  0  0  0  0  0  0  0  0  0
   -6.7948   -1.9808  -20.9560 N   0  0  0  0  0  0  0  0  0  0  0  0
   -6.1677   -1.1554  -19.9911 C   0  0  0  0  0  0  0  0  0  0  0  0
   -6.5474   -1.2393  -18.6779 C   0  0  0  0  0  0  0  0  0  0  0  0
   -6.0178   -0.4933  -17.6746 N   0  0  0  0  0  0  0  0  0  0  0  0
   -5.0756    0.3605  -18.0035 C   0  0  0  0  0  0  0  0  0  0  0  0
   -4.5818    0.5424  -19.3286 C   0  0  0  0  0  0  0  0  0  0  0  0
   -3.5622    1.4833  -19.6335 C   0  0  0  0  0  0  0  0  0  0  0  0
   -3.1012    1.6173  -20.9140 C   0  0  0  0  0  0  0  0  0  0  0  0
   -3.6309    0.8199  -21.9540 C   0  0  0  0  0  0  0  0  0  0  0  0
   -4.6256   -0.0884  -21.6881 C   0  0  0  0  0  0  0  0  0  0  0  0
   -5.1337   -0.2448  -20.3657 C   0  0  0  0  0  0  0  0  0  0  0  0
   -6.3093   -3.2923  -21.3155 C   0  0  0  0  0  0  0  0  0  0  0  0
   -7.5058   -3.8797  -22.0860 C   0  0  2  0  0  0  0  0  0  0  0  0
   -7.0783   -5.0043  -23.0272 C   0  0  0  0  0  0  0  0  0  0  0  0
   -6.1655   -6.2525  -22.1173 S   0  0  0  0  0  0  0  0  0  0  0  0
   -6.7863   -6.4711  -20.8197 O   0  0  0  0  0  0  0  0  0  0  0  0
   -4.7483   -5.9079  -22.1735 O   0  0  0  0  0  0  0  0  0  0  0  0
   -6.4671   -7.5678  -23.1206 N   0  0  0  0  0  0  0  0  0  0  0  0
   -5.6312   -7.5958  -24.3228 C   0  0  0  0  0  0  0  0  0  0  0  0
   -6.5638   -8.8537  -22.4347 C   0  0  0  0  0  0  0  0  0  0  0  0
   -9.7126   -2.7383  -22.9404 C   0  0  0  0  0  0  0  0  0  0  0  0
  -10.5420   -3.6113  -22.2249 C   0  0  0  0  0  0  0  0  0  0  0  0
  -11.9117   -3.5318  -22.3854 C   0  0  0  0  0  0  0  0  0  0  0  0
  -12.6950   -4.3705  -21.6864 F   0  0  0  0  0  0  0  0  0  0  0  0
  -12.5233   -2.6139  -23.2300 C   0  0  0  0  0  0  0  0  0  0  0  0
  -11.7116   -1.7609  -23.9466 C   0  0  0  0  0  0  0  0  0  0  0  0
  -10.3251   -1.8297  -23.8208 C   0  0  0  0  0  0  0  0  0  0  0  0
   -9.5190   -0.9000  -24.6729 C   0  0  0  0  0  0  0  0  0  0  0  0
  -10.0365    0.0100  -25.3085 O   0  0  0  0  0  0  0  0  0  0  0  0
   -5.7044    2.4730  -22.9770 H   0  0  0  0  0  0  0  0  0  0  0  0
   -6.8725    3.4920  -23.8501 H   0  0  0  0  0  0  0  0  0  0  0  0
   -7.3060    2.7999  -22.2658 H   0  0  0  0  0  0  0  0  0  0  0  0
   -7.9293    0.8368  -23.2623 H   0  0  0  0  0  0  0  0  0  0  0  0
   -7.9394   -0.0867  -26.4833 H   0  0  0  0  0  0  0  0  0  0  0  0
   -6.4792   -0.8789  -25.8864 H   0  0  0  0  0  0  0  0  0  0  0  0
   -6.5019   -2.1348  -23.9872 H   0  0  0  0  0  0  0  0  0  0  0  0
   -7.7231   -3.1642  -24.7843 H   0  0  0  0  0  0  0  0  0  0  0  0
   -7.3319   -1.9397  -18.3959 H   0  0  0  0  0  0  0  0  0  0  0  0
   -4.6469    0.9639  -17.2022 H   0  0  0  0  0  0  0  0  0  0  0  0
   -3.1637    2.0939  -18.8275 H   0  0  0  0  0  0  0  0  0  0  0  0
   -2.3263    2.3413  -21.1472 H   0  0  0  0  0  0  0  0  0  0  0  0
   -3.2697    0.9489  -22.9725 H   0  0  0  0  0  0  0  0  0  0  0  0
   -5.0264   -0.6920  -22.4979 H   0  0  0  0  0  0  0  0  0  0  0  0
   -5.3937   -3.2304  -21.9298 H   0  0  0  0  0  0  0  0  0  0  0  0
   -6.0644   -3.8802  -20.4300 H   0  0  0  0  0  0  0  0  0  0  0  0
   -8.1831   -4.3097  -21.3408 H   0  0  0  0  0  0  0  0  0  0  0  0
   -6.3757   -4.6468  -23.7919 H   0  0  0  0  0  0  0  0  0  0  0  0
   -7.9323   -5.5035  -23.5016 H   0  0  0  0  0  0  0  0  0  0  0  0
   -5.9209   -6.8028  -25.0285 H   0  0  0  0  0  0  0  0  0  0  0  0
   -5.8110   -8.5617  -24.8071 H   0  0  0  0  0  0  0  0  0  0  0  0
   -4.5666   -7.4857  -24.0707 H   0  0  0  0  0  0  0  0  0  0  0  0
   -7.2068   -8.7433  -21.5628 H   0  0  0  0  0  0  0  0  0  0  0  0
   -5.5796   -9.2371  -22.1324 H   0  0  0  0  0  0  0  0  0  0  0  0
   -7.0337   -9.5639  -23.1197 H   0  0  0  0  0  0  0  0  0  0  0  0
  -10.1576   -4.3547  -21.5353 H   0  0  0  0  0  0  0  0  0  0  0  0
  -13.6039   -2.5828  -23.3117 H   0  0  0  0  0  0  0  0  0  0  0  0
  -12.1266   -1.0204  -24.6208 H   0  0  0  0  0  0  0  0  0  0  0  0
  1  2  1  0
  2  3  1  0
  3  4  2  0
  3  5  1  0
  5  6  1  0
  6  7  1  0
  8  7  1  6
  8  9  1  0
  9 10  2  0
  9 11  1  0
 11 12  1  0
 12 13  2  0
 13 14  1  0
 14 15  2  0
 15 16  1  0
 16 17  2  0
 17 18  1  0
 18 19  2  0
 19 20  1  0
 20 21  2  0
 11 22  1  0
 22 23  1  0
 23 24  1  0
 24 25  1  0
 25 26  2  0
 25 27  2  0
 25 28  1  0
 28 29  1  0
 28 30  1  0
  8 31  1  0
 31 32  2  0
 32 33  1  0
 33 34  1  0
 33 35  2  0
 35 36  1  0
 36 37  2  0
 37 38  1  0
 38 39  2  0
 38  6  1  0
 23  8  1  0
 37 31  1  0
 21 12  1  0
 21 16  1  0
  1 40  1  0
  1 41  1  0
  1 42  1  0
  2 43  1  0
  5 44  1  0
  5 45  1  0
  7 46  1  0
  7 47  1  0
 13 48  1  0
 15 49  1  0
 17 50  1  0
 18 51  1  0
 19 52  1  0
 20 53  1  0
 22 54  1  0
 22 55  1  0
 23 56  1  1
 24 57  1  0
 24 58  1  0
 29 59  1  0
 29 60  1  0
 29 61  1  0
 30 62  1  0
 30 63  1  0
 30 64  1  0
 32 65  1  0
 35 66  1  0
 36 67  1  0
M  END
>  <RMSD>  (21) 
0.058569426955470544

$$$$

     RDKit          3D

 67 72  0  0  0  0  0  0  0  0999 V2000
   -6.7625    2.6541  -23.2194 C   0  0  0  0  0  0  0  0  0  0  0  0
   -7.3129    1.4755  -23.8578 N   0  0  0  0  0  0  0  0  0  0  0  0
   -6.8344    1.0652  -25.0513 C   0  0  0  0  0  0  0  0  0  0  0  0
   -6.0165    1.7001  -25.7055 O   0  0  0  0  0  0  0  0  0  0  0  0
   -7.3299   -0.2860  -25.5804 C   0  0  0  0  0  0  0  0  0  0  0  0
   -8.1488   -1.0786  -24.6856 N   0  0  0  0  0  0  0  0  0  0  0  0
   -7.5832   -2.2891  -24.1202 C   0  0  0  0  0  0  0  0  0  0  0  0
   -8.2305   -2.6402  -22.7548 C   0  0  2  0  0  0  0  0  0  0  0  0
   -7.8775   -1.5341  -21.7269 C   0  0  0  0  0  0  0  0  0  0  0  0
   -8.4094   -0.4517  -21.5929 O   0  0  0  0  0  0  0  0  0  0  0  0
   -6.8093   -1.9808  -20.9744 N   0  0  0  0  0  0  0  0  0  0  0  0
   -6.1754   -1.1569  -20.0033 C   0  0  0  0  0  0  0  0  0  0  0  0
   -6.5467   -1.2430  -18.6878 C   0  0  0  0  0  0  0  0  0  0  0  0
   -6.0146   -0.4993  -17.6816 N   0  0  0  0  0  0  0  0  0  0  0  0
   -5.0749    0.3594  -17.9999 C   0  0  0  0  0  0  0  0  0  0  0  0
   -4.5719    0.5412  -19.3213 C   0  0  0  0  0  0  0  0  0  0  0  0
   -3.5538    1.4878  -19.6304 C   0  0  0  0  0  0  0  0  0  0  0  0
   -3.0986    1.6208  -20.9137 C   0  0  0  0  0  0  0  0  0  0  0  0
   -3.6285    0.8173  -21.9510 C   0  0  0  0  0  0  0  0  0  0  0  0
   -4.6213   -0.0907  -21.6817 C   0  0  0  0  0  0  0  0  0  0  0  0
   -5.1275   -0.2479  -20.3607 C   0  0  0  0  0  0  0  0  0  0  0  0
   -6.3487   -3.3077  -21.3438 C   0  0  0  0  0  0  0  0  0  0  0  0
   -7.5600   -3.8749  -22.0951 C   0  0  2  0  0  0  0  0  0  0  0  0
   -7.2370   -5.0492  -23.0247 C   0  0  0  0  0  0  0  0  0  0  0  0
   -6.8498   -6.2596  -22.3251 N   0  0  0  0  0  0  0  0  0  0  0  0
   -5.6452   -6.4295  -21.6855 C   0  0  0  0  0  0  0  0  0  0  0  0
   -5.5350   -6.9981  -20.0374 S   0  0  0  0  0  0  0  0  0  0  0  0
   -3.8212   -6.9282  -20.1865 C   0  0  0  0  0  0  0  0  0  0  0  0
   -3.3613   -6.5526  -21.3280 N   0  0  0  0  0  0  0  0  0  0  0  0
   -4.3864   -6.2895  -22.2013 C   0  0  0  0  0  0  0  0  0  0  0  0
   -4.0651   -5.8963  -23.6093 C   0  0  0  0  0  0  0  0  0  0  0  0
   -9.7249   -2.7128  -22.9775 C   0  0  0  0  0  0  0  0  0  0  0  0
  -10.5527   -3.5853  -22.2605 C   0  0  0  0  0  0  0  0  0  0  0  0
  -11.9266   -3.5051  -22.3959 C   0  0  0  0  0  0  0  0  0  0  0  0
  -12.9283   -4.5661  -21.4452 Cl  0  0  0  0  0  0  0  0  0  0  0  0
  -12.5255   -2.5786  -23.2525 C   0  0  0  0  0  0  0  0  0  0  0  0
  -11.7126   -1.7274  -23.9784 C   0  0  0  0  0  0  0  0  0  0  0  0
  -10.3247   -1.7901  -23.8509 C   0  0  0  0  0  0  0  0  0  0  0  0
   -9.4944   -0.8341  -24.6593 C   0  0  0  0  0  0  0  0  0  0  0  0
   -9.9780    0.1269  -25.2441 O   0  0  0  0  0  0  0  0  0  0  0  0
   -7.2930    2.8086  -22.2762 H   0  0  0  0  0  0  0  0  0  0  0  0
   -6.8680    3.5441  -23.8488 H   0  0  0  0  0  0  0  0  0  0  0  0
   -5.6981    2.5100  -22.9983 H   0  0  0  0  0  0  0  0  0  0  0  0
   -8.1054    1.0252  -23.4273 H   0  0  0  0  0  0  0  0  0  0  0  0
   -7.8659   -0.1079  -26.5180 H   0  0  0  0  0  0  0  0  0  0  0  0
   -6.4326   -0.8597  -25.8355 H   0  0  0  0  0  0  0  0  0  0  0  0
   -7.7200   -3.1264  -24.8204 H   0  0  0  0  0  0  0  0  0  0  0  0
   -6.5077   -2.1279  -23.9849 H   0  0  0  0  0  0  0  0  0  0  0  0
   -7.3312   -1.9377  -18.3912 H   0  0  0  0  0  0  0  0  0  0  0  0
   -4.6560    0.9657  -17.1925 H   0  0  0  0  0  0  0  0  0  0  0  0
   -3.1534    2.1089  -18.8308 H   0  0  0  0  0  0  0  0  0  0  0  0
   -2.3305    2.3501  -21.1556 H   0  0  0  0  0  0  0  0  0  0  0  0
   -3.2757    0.9421  -22.9723 H   0  0  0  0  0  0  0  0  0  0  0  0
   -5.0345   -0.6993  -22.4820 H   0  0  0  0  0  0  0  0  0  0  0  0
   -6.0792   -3.8991  -20.4657 H   0  0  0  0  0  0  0  0  0  0  0  0
   -5.4595   -3.2757  -21.9978 H   0  0  0  0  0  0  0  0  0  0  0  0
   -8.2334   -4.2437  -21.3168 H   0  0  0  0  0  0  0  0  0  0  0  0
   -6.4319   -4.7737  -23.7073 H   0  0  0  0  0  0  0  0  0  0  0  0
   -8.1106   -5.2832  -23.6439 H   0  0  0  0  0  0  0  0  0  0  0  0
   -7.6185   -6.7781  -21.9309 H   0  0  0  0  0  0  0  0  0  0  0  0
   -3.2073   -7.2140  -19.3472 H   0  0  0  0  0  0  0  0  0  0  0  0
   -3.0580   -6.2200  -23.8809 H   0  0  0  0  0  0  0  0  0  0  0  0
   -4.7781   -6.3301  -24.3158 H   0  0  0  0  0  0  0  0  0  0  0  0
   -4.0982   -4.8075  -23.7336 H   0  0  0  0  0  0  0  0  0  0  0  0
  -10.1360   -4.3330  -21.5929 H   0  0  0  0  0  0  0  0  0  0  0  0
  -13.6084   -2.5294  -23.3276 H   0  0  0  0  0  0  0  0  0  0  0  0
  -12.1452   -0.9965  -24.6542 H   0  0  0  0  0  0  0  0  0  0  0  0
  1  2  1  0
  2  3  1  0
  3  4  2  0
  3  5  1  0
  5  6  1  0
  6  7  1  0
  8  7  1  6
  8  9  1  0
  9 10  2  0
  9 11  1  0
 11 12  1  0
 12 13  2  0
 13 14  1  0
 14 15  2  0
 15 16  1  0
 16 17  2  0
 17 18  1  0
 18 19  2  0
 19 20  1  0
 20 21  2  0
 11 22  1  0
 22 23  1  0
 23 24  1  0
 24 25  1  0
 25 26  1  0
 26 27  1  0
 27 28  1  0
 28 29  2  0
 29 30  1  0
 30 31  1  0
  8 32  1  0
 32 33  2  0
 33 34  1  0
 34 35  1  0
 34 36  2  0
 36 37  1  0
 37 38  2  0
 38 39  1  0
 39 40  2  0
 39  6  1  0
 23  8  1  0
 30 26  2  0
 38 32  1  0
 21 12  1  0
 21 16  1  0
  1 41  1  0
  1 42  1  0
  1 43  1  0
  2 44  1  0
  5 45  1  0
  5 46  1  0
  7 47  1  0
  7 48  1  0
 13 49  1  0
 15 50  1  0
 17 51  1  0
 18 52  1  0
 19 53  1  0
 20 54  1  0
 22 55  1  0
 22 56  1  0
 23 57  1  1
 24 58  1  0
 24 59  1  0
 25 60  1  0
 28 61  1  0
 31 62  1  0
 31 63  1  0
 31 64  1  0
 33 65  1  0
 36 66  1  0
 37 67  1  0
M  END
>  <RMSD>  (22) 
0.05649685545692332

$$$$

     RDKit          3D

 50 52  0  0  0  0  0  0  0  0999 V2000
   -6.5853    0.0107  -24.4444 C   0  0  0  0  0  0  0  0  0  0  0  0
   -6.4316   -1.3055  -24.6144 C   0  0  0  0  0  0  0  0  0  0  0  0
   -7.0875   -2.4567  -23.8420 C   0  0  0  0  0  0  0  0  0  0  0  0
   -8.1321   -2.1042  -22.8888 N   0  0  0  0  0  0  0  0  0  0  0  0
   -7.7917   -1.3848  -21.7407 C   0  0  0  0  0  0  0  0  0  0  0  0
   -8.3564   -0.3709  -21.3907 O   0  0  0  0  0  0  0  0  0  0  0  0
   -6.7097   -1.9499  -21.0457 N   0  0  0  0  0  0  0  0  0  0  0  0
   -6.1291   -1.1799  -20.0031 C   0  0  0  0  0  0  0  0  0  0  0  0
   -6.5231   -1.2656  -18.6920 C   0  0  0  0  0  0  0  0  0  0  0  0
   -6.0095   -0.4990  -17.6976 N   0  0  0  0  0  0  0  0  0  0  0  0
   -5.0832    0.3724  -18.0075 C   0  0  0  0  0  0  0  0  0  0  0  0
   -4.5669    0.5474  -19.3202 C   0  0  0  0  0  0  0  0  0  0  0  0
   -3.5597    1.4980  -19.6312 C   0  0  0  0  0  0  0  0  0  0  0  0
   -3.1048    1.6217  -20.9164 C   0  0  0  0  0  0  0  0  0  0  0  0
   -3.6391    0.8123  -21.9467 C   0  0  0  0  0  0  0  0  0  0  0  0
   -4.6063   -0.1188  -21.6647 C   0  0  0  0  0  0  0  0  0  0  0  0
   -5.1048   -0.2532  -20.3459 C   0  0  0  0  0  0  0  0  0  0  0  0
   -9.4851   -2.0035  -23.3403 C   0  0  0  0  0  0  0  0  0  0  0  0
   -9.8448   -1.2029  -24.4229 C   0  0  0  0  0  0  0  0  0  0  0  0
  -11.1876   -1.0652  -24.7780 C   0  0  0  0  0  0  0  0  0  0  0  0
  -12.1761   -1.7800  -24.1119 C   0  0  0  0  0  0  0  0  0  0  0  0
  -11.7989   -2.6150  -23.0686 C   0  0  0  0  0  0  0  0  0  0  0  0
  -13.0251   -3.5597  -22.2705 Cl  0  0  0  0  0  0  0  0  0  0  0  0
  -10.4757   -2.7143  -22.6579 C   0  0  0  0  0  0  0  0  0  0  0  0
   -5.4070   -1.7089  -25.6515 C   0  0  0  0  0  0  0  0  0  0  0  0
   -4.4523   -0.9938  -25.9202 O   0  0  0  0  0  0  0  0  0  0  0  0
   -5.5949   -2.9007  -26.2779 N   0  0  0  0  0  0  0  0  0  0  0  0
   -4.4828   -3.5210  -26.9753 C   0  0  0  0  0  0  0  0  0  0  0  0
   -4.8808   -4.8558  -27.5854 C   0  0  0  0  0  0  0  0  0  0  0  0
   -6.0509    0.7134  -25.0855 H   0  0  0  0  0  0  0  0  0  0  0  0
   -7.1938    0.4277  -23.6419 H   0  0  0  0  0  0  0  0  0  0  0  0
   -7.5438   -3.1562  -24.5457 H   0  0  0  0  0  0  0  0  0  0  0  0
   -6.3110   -3.0181  -23.3015 H   0  0  0  0  0  0  0  0  0  0  0  0
   -6.7920   -2.9511  -20.8957 H   0  0  0  0  0  0  0  0  0  0  0  0
   -7.2942   -1.9723  -18.3882 H   0  0  0  0  0  0  0  0  0  0  0  0
   -4.6842    0.9793  -17.1961 H   0  0  0  0  0  0  0  0  0  0  0  0
   -3.1624    2.1119  -18.8268 H   0  0  0  0  0  0  0  0  0  0  0  0
   -2.3278    2.3417  -21.1581 H   0  0  0  0  0  0  0  0  0  0  0  0
   -3.3041    0.9411  -22.9718 H   0  0  0  0  0  0  0  0  0  0  0  0
   -5.0177   -0.7553  -22.4411 H   0  0  0  0  0  0  0  0  0  0  0  0
   -9.0551   -0.6926  -24.9644 H   0  0  0  0  0  0  0  0  0  0  0  0
  -11.4790   -0.4000  -25.5848 H   0  0  0  0  0  0  0  0  0  0  0  0
  -13.2244   -1.6847  -24.3832 H   0  0  0  0  0  0  0  0  0  0  0  0
  -10.2192   -3.3493  -21.8164 H   0  0  0  0  0  0  0  0  0  0  0  0
   -6.4754   -3.3834  -26.2035 H   0  0  0  0  0  0  0  0  0  0  0  0
   -3.6534   -3.6472  -26.2691 H   0  0  0  0  0  0  0  0  0  0  0  0
   -4.1162   -2.8304  -27.7375 H   0  0  0  0  0  0  0  0  0  0  0  0
   -4.0009   -5.4226  -27.9072 H   0  0  0  0  0  0  0  0  0  0  0  0
   -5.4090   -5.4681  -26.8475 H   0  0  0  0  0  0  0  0  0  0  0  0
   -5.5292   -4.7303  -28.4591 H   0  0  0  0  0  0  0  0  0  0  0  0
  1  2  2  0
  2  3  1  0
  3  4  1  0
  4  5  1  0
  5  6  2  0
  5  7  1  0
  7  8  1  0
  8  9  2  0
  9 10  1  0
 10 11  2  0
 11 12  1  0
 12 13  2  0
 13 14  1  0
 14 15  2  0
 15 16  1  0
 16 17  2  0
  4 18  1  0
 18 19  2  0
 19 20  1  0
 20 21  2  0
 21 22  1  0
 22 23  1  0
 22 24  2  0
  2 25  1  0
 25 26  2  0
 25 27  1  0
 27 28  1  0
 28 29  1  0
 17  8  1  0
 24 18  1  0
 17 12  1  0
  1 30  1  0
  1 31  1  0
  3 32  1  0
  3 33  1  0
  7 34  1  0
  9 35  1  0
 11 36  1  0
 13 37  1  0
 14 38  1  0
 15 39  1  0
 16 40  1  0
 19 41  1  0
 20 42  1  0
 21 43  1  0
 24 44  1  0
 27 45  1  0
 28 46  1  0
 28 47  1  0
 29 48  1  0
 29 49  1  0
 29 50  1  0
M  END
>  <RMSD>  (23) 
0.037541363137982245

$$$$

     RDKit          3D

 44 47  0  0  0  0  0  0  0  0999 V2000
   -8.9000   -1.4680  -20.7502 O   0  0  0  0  0  0  0  0  0  0  0  0
   -8.0738   -1.9911  -21.4774 C   0  0  0  0  0  0  0  0  0  0  0  0
   -6.6435   -2.2355  -20.9859 C   0  0  0  0  0  0  0  0  0  0  0  0
   -6.0974   -1.2440  -19.9900 C   0  0  0  0  0  0  0  0  0  0  0  0
   -6.4972   -1.2748  -18.6756 C   0  0  0  0  0  0  0  0  0  0  0  0
   -6.0481   -0.4499  -17.6894 N   0  0  0  0  0  0  0  0  0  0  0  0
   -5.1187    0.4105  -18.0282 C   0  0  0  0  0  0  0  0  0  0  0  0
   -4.5705    0.5290  -19.3313 C   0  0  0  0  0  0  0  0  0  0  0  0
   -3.5390    1.4547  -19.6267 C   0  0  0  0  0  0  0  0  0  0  0  0
   -3.0936    1.6111  -20.9085 C   0  0  0  0  0  0  0  0  0  0  0  0
   -3.6526    0.8285  -21.9417 C   0  0  0  0  0  0  0  0  0  0  0  0
   -4.6285   -0.1024  -21.6745 C   0  0  0  0  0  0  0  0  0  0  0  0
   -5.1052   -0.2891  -20.3533 C   0  0  0  0  0  0  0  0  0  0  0  0
   -8.4283   -2.5168  -22.7184 N   0  0  0  0  0  0  0  0  0  0  0  0
   -7.8305   -2.1788  -24.0045 C   0  0  0  0  0  0  0  0  0  0  0  0
   -8.6449   -1.0842  -24.7176 C   0  0  0  0  0  0  0  0  0  0  0  0
  -10.1759   -1.2802  -24.5387 C   0  0  0  0  0  0  0  0  0  0  0  0
  -10.7401   -0.2229  -23.5985 C   0  0  0  0  0  0  0  0  0  0  0  0
  -11.9827    0.5366  -23.9540 C   0  0  0  0  0  0  0  0  0  0  0  0
  -10.6430    1.2357  -23.9372 C   0  0  0  0  0  0  0  0  0  0  0  0
  -10.5198   -2.7015  -24.0488 C   0  0  0  0  0  0  0  0  0  0  0  0
   -9.7488   -3.1315  -22.7931 C   0  0  0  0  0  0  0  0  0  0  0  0
   -5.9582   -2.3957  -21.8202 H   0  0  0  0  0  0  0  0  0  0  0  0
   -6.7061   -3.2215  -20.5024 H   0  0  0  0  0  0  0  0  0  0  0  0
   -7.2397   -1.9967  -18.3501 H   0  0  0  0  0  0  0  0  0  0  0  0
   -4.7364    1.0722  -17.2502 H   0  0  0  0  0  0  0  0  0  0  0  0
   -3.0990    1.9971  -18.7966 H   0  0  0  0  0  0  0  0  0  0  0  0
   -2.3592    2.3773  -21.1457 H   0  0  0  0  0  0  0  0  0  0  0  0
   -3.2755    0.9314  -22.9531 H   0  0  0  0  0  0  0  0  0  0  0  0
   -5.0562   -0.6733  -22.4928 H   0  0  0  0  0  0  0  0  0  0  0  0
   -7.8342   -3.0710  -24.6411 H   0  0  0  0  0  0  0  0  0  0  0  0
   -6.7858   -1.8807  -23.8651 H   0  0  0  0  0  0  0  0  0  0  0  0
   -8.3844   -1.0695  -25.7831 H   0  0  0  0  0  0  0  0  0  0  0  0
   -8.3688   -0.1011  -24.3204 H   0  0  0  0  0  0  0  0  0  0  0  0
  -10.6537   -1.1457  -25.5208 H   0  0  0  0  0  0  0  0  0  0  0  0
  -10.5663   -0.4245  -22.5417 H   0  0  0  0  0  0  0  0  0  0  0  0
  -12.7184    0.7574  -23.1843 H   0  0  0  0  0  0  0  0  0  0  0  0
  -12.3971    0.3936  -24.9494 H   0  0  0  0  0  0  0  0  0  0  0  0
  -10.4180    1.9221  -23.1221 H   0  0  0  0  0  0  0  0  0  0  0  0
  -10.2142    1.4989  -24.9058 H   0  0  0  0  0  0  0  0  0  0  0  0
  -11.5944   -2.7866  -23.8411 H   0  0  0  0  0  0  0  0  0  0  0  0
  -10.3137   -3.4206  -24.8526 H   0  0  0  0  0  0  0  0  0  0  0  0
  -10.2627   -2.8358  -21.8723 H   0  0  0  0  0  0  0  0  0  0  0  0
   -9.6551   -4.2325  -22.7866 H   0  0  0  0  0  0  0  0  0  0  0  0
  1  2  2  0
  2  3  1  0
  3  4  1  0
  4  5  2  0
  5  6  1  0
  6  7  2  0
  7  8  1  0
  8  9  2  0
  9 10  1  0
 10 11  2  0
 11 12  1  0
 12 13  2  0
  2 14  1  0
 14 15  1  0
 15 16  1  0
 16 17  1  0
 17 18  1  0
 18 19  1  0
 19 20  1  0
 17 21  1  0
 21 22  1  0
 13  4  1  0
 22 14  1  0
 13  8  1  0
 20 18  1  0
  3 23  1  0
  3 24  1  0
  5 25  1  0
  7 26  1  0
  9 27  1  0
 10 28  1  0
 11 29  1  0
 12 30  1  0
 15 31  1  0
 15 32  1  0
 16 33  1  0
 16 34  1  0
 17 35  1  0
 18 36  1  0
 19 37  1  0
 19 38  1  0
 20 39  1  0
 20 40  1  0
 21 41  1  0
 21 42  1  0
 22 43  1  0
 22 44  1  0
M  END
>  <RMSD>  (24) 
0.06482206577678166

$$$$

     RDKit          3D

 69 74  0  0  0  0  0  0  0  0999 V2000
   -6.7654    2.6460  -23.1945 C   0  0  0  0  0  0  0  0  0  0  0  0
   -7.3405    1.4737  -23.8272 N   0  0  0  0  0  0  0  0  0  0  0  0
   -6.8538    1.0510  -25.0137 C   0  0  0  0  0  0  0  0  0  0  0  0
   -6.0267    1.6744  -25.6676 O   0  0  0  0  0  0  0  0  0  0  0  0
   -7.3739   -0.2803  -25.5662 C   0  0  0  0  0  0  0  0  0  0  0  0
   -8.1871   -1.0838  -24.6844 N   0  0  0  0  0  0  0  0  0  0  0  0
   -7.6022   -2.2867  -24.1141 C   0  0  0  0  0  0  0  0  0  0  0  0
   -8.2227   -2.6374  -22.7406 C   0  0  2  0  0  0  0  0  0  0  0  0
   -7.8461   -1.5445  -21.7089 C   0  0  0  0  0  0  0  0  0  0  0  0
   -8.3689   -0.4563  -21.5650 O   0  0  0  0  0  0  0  0  0  0  0  0
   -6.7874   -2.0010  -20.9563 N   0  0  0  0  0  0  0  0  0  0  0  0
   -6.1611   -1.1696  -19.9933 C   0  0  0  0  0  0  0  0  0  0  0  0
   -6.5477   -1.2396  -18.6805 C   0  0  0  0  0  0  0  0  0  0  0  0
   -6.0223   -0.4860  -17.6787 N   0  0  0  0  0  0  0  0  0  0  0  0
   -5.0785    0.3655  -18.0049 C   0  0  0  0  0  0  0  0  0  0  0  0
   -4.5853    0.5431  -19.3305 C   0  0  0  0  0  0  0  0  0  0  0  0
   -3.5633    1.4804  -19.6348 C   0  0  0  0  0  0  0  0  0  0  0  0
   -3.0976    1.6177  -20.9125 C   0  0  0  0  0  0  0  0  0  0  0  0
   -3.6315    0.8235  -21.9517 C   0  0  0  0  0  0  0  0  0  0  0  0
   -4.6303   -0.0803  -21.6879 C   0  0  0  0  0  0  0  0  0  0  0  0
   -5.1359   -0.2461  -20.3669 C   0  0  0  0  0  0  0  0  0  0  0  0
   -6.3227   -3.3194  -21.3445 C   0  0  0  0  0  0  0  0  0  0  0  0
   -7.5513   -3.8703  -22.0775 C   0  0  2  0  0  0  0  0  0  0  0  0
   -7.2851   -5.1029  -22.9346 C   0  0  0  0  0  0  0  0  0  0  0  0
   -6.2165   -4.9344  -23.9170 N   0  0  0  0  0  0  0  0  0  0  0  0
   -6.3047   -5.4954  -25.1695 C   0  0  0  0  0  0  0  0  0  0  0  0
   -7.5265   -5.6615  -25.8497 C   0  0  0  0  0  0  0  0  0  0  0  0
   -7.4542   -6.2552  -27.0927 C   0  0  0  0  0  0  0  0  0  0  0  0
   -6.3066   -6.6601  -27.6420 N   0  0  0  0  0  0  0  0  0  0  0  0
   -5.2055   -6.4030  -26.9338 C   0  0  0  0  0  0  0  0  0  0  0  0
   -3.8970   -6.7719  -27.5618 C   0  0  0  0  0  0  0  0  0  0  0  0
   -5.1455   -5.8363  -25.7323 N   0  0  0  0  0  0  0  0  0  0  0  0
   -9.7255   -2.7080  -22.9374 C   0  0  0  0  0  0  0  0  0  0  0  0
  -10.5586   -3.5801  -22.2225 C   0  0  0  0  0  0  0  0  0  0  0  0
  -11.9341   -3.4999  -22.3573 C   0  0  0  0  0  0  0  0  0  0  0  0
  -12.9471   -4.5683  -21.4237 Cl  0  0  0  0  0  0  0  0  0  0  0  0
  -12.5385   -2.5718  -23.2046 C   0  0  0  0  0  0  0  0  0  0  0  0
  -11.7263   -1.7223  -23.9284 C   0  0  0  0  0  0  0  0  0  0  0  0
  -10.3394   -1.7959  -23.8110 C   0  0  0  0  0  0  0  0  0  0  0  0
   -9.5364   -0.8603  -24.6617 C   0  0  0  0  0  0  0  0  0  0  0  0
  -10.0600    0.0611  -25.2800 O   0  0  0  0  0  0  0  0  0  0  0  0
   -7.2964    2.8231  -22.2561 H   0  0  0  0  0  0  0  0  0  0  0  0
   -5.6995    2.4927  -22.9779 H   0  0  0  0  0  0  0  0  0  0  0  0
   -6.8637    3.5309  -23.8321 H   0  0  0  0  0  0  0  0  0  0  0  0
   -7.9477    0.8829  -23.2697 H   0  0  0  0  0  0  0  0  0  0  0  0
   -6.4873   -0.8520  -25.8606 H   0  0  0  0  0  0  0  0  0  0  0  0
   -7.9436   -0.0589  -26.4732 H   0  0  0  0  0  0  0  0  0  0  0  0
   -7.7491   -3.1325  -24.7935 H   0  0  0  0  0  0  0  0  0  0  0  0
   -6.5274   -2.1243  -23.9928 H   0  0  0  0  0  0  0  0  0  0  0  0
   -7.3390   -1.9285  -18.3885 H   0  0  0  0  0  0  0  0  0  0  0  0
   -4.6351    0.9635  -17.2052 H   0  0  0  0  0  0  0  0  0  0  0  0
   -3.1651    2.0843  -18.8259 H   0  0  0  0  0  0  0  0  0  0  0  0
   -2.3224    2.3418  -21.1465 H   0  0  0  0  0  0  0  0  0  0  0  0
   -3.2708    0.9527  -22.9687 H   0  0  0  0  0  0  0  0  0  0  0  0
   -5.0305   -0.6837  -22.4975 H   0  0  0  0  0  0  0  0  0  0  0  0
   -5.4388   -3.2504  -21.9988 H   0  0  0  0  0  0  0  0  0  0  0  0
   -6.0454   -3.9170  -20.4702 H   0  0  0  0  0  0  0  0  0  0  0  0
   -8.2567   -4.1767  -21.2993 H   0  0  0  0  0  0  0  0  0  0  0  0
   -7.0785   -5.9570  -22.2761 H   0  0  0  0  0  0  0  0  0  0  0  0
   -8.2070   -5.3460  -23.4625 H   0  0  0  0  0  0  0  0  0  0  0  0
   -5.2654   -4.9906  -23.5699 H   0  0  0  0  0  0  0  0  0  0  0  0
   -8.4672   -5.3006  -25.4490 H   0  0  0  0  0  0  0  0  0  0  0  0
   -8.3465   -6.4053  -27.7036 H   0  0  0  0  0  0  0  0  0  0  0  0
   -3.4933   -5.9083  -28.0970 H   0  0  0  0  0  0  0  0  0  0  0  0
   -4.0796   -7.5719  -28.2722 H   0  0  0  0  0  0  0  0  0  0  0  0
   -3.1631   -7.0835  -26.8200 H   0  0  0  0  0  0  0  0  0  0  0  0
  -10.1572   -4.3345  -21.5557 H   0  0  0  0  0  0  0  0  0  0  0  0
  -13.6206   -2.5327  -23.2819 H   0  0  0  0  0  0  0  0  0  0  0  0
  -12.1427   -0.9824  -24.6036 H   0  0  0  0  0  0  0  0  0  0  0  0
  1  2  1  0
  2  3  1  0
  3  4  2  0
  3  5  1  0
  5  6  1  0
  6  7  1  0
  8  7  1  6
  8  9  1  0
  9 10  2  0
  9 11  1  0
 11 12  1  0
 12 13  2  0
 13 14  1  0
 14 15  2  0
 15 16  1  0
 16 17  2  0
 17 18  1  0
 18 19  2  0
 19 20  1  0
 20 21  2  0
 11 22  1  0
 22 23  1  0
 23 24  1  0
 24 25  1  0
 25 26  1  0
 26 27  2  0
 27 28  1  0
 28 29  2  0
 29 30  1  0
 30 31  1  0
 30 32  2  0
  8 33  1  0
 33 34  2  0
 34 35  1  0
 35 36  1  0
 35 37  2  0
 37 38  1  0
 38 39  2  0
 39 40  1  0
 40 41  2  0
 40  6  1  0
 23  8  1  0
 32 26  1  0
 39 33  1  0
 21 12  1  0
 21 16  1  0
  1 42  1  0
  1 43  1  0
  1 44  1  0
  2 45  1  0
  5 46  1  0
  5 47  1  0
  7 48  1  0
  7 49  1  0
 13 50  1  0
 15 51  1  0
 17 52  1  0
 18 53  1  0
 19 54  1  0
 20 55  1  0
 22 56  1  0
 22 57  1  0
 23 58  1  1
 24 59  1  0
 24 60  1  0
 25 61  1  0
 27 62  1  0
 28 63  1  0
 31 64  1  0
 31 65  1  0
 31 66  1  0
 34 67  1  0
 37 68  1  0
 38 69  1  0
M  END
>  <RMSD>  (25) 
0.06371462313891907

$$$$

     RDKit          3D

 64 68  0  0  0  0  0  0  0  0999 V2000
   -6.7702    2.6297  -23.2057 C   0  0  0  0  0  0  0  0  0  0  0  0
   -7.3387    1.4522  -23.8359 N   0  0  0  0  0  0  0  0  0  0  0  0
   -6.8462    1.0268  -25.0215 C   0  0  0  0  0  0  0  0  0  0  0  0
   -6.0271    1.6567  -25.6737 O   0  0  0  0  0  0  0  0  0  0  0  0
   -7.3559   -0.3126  -25.5680 C   0  0  0  0  0  0  0  0  0  0  0  0
   -8.1658   -1.1271  -24.6902 N   0  0  0  0  0  0  0  0  0  0  0  0
   -7.5811   -2.3161  -24.0956 C   0  0  0  0  0  0  0  0  0  0  0  0
   -8.2198   -2.6472  -22.7233 C   0  0  2  0  0  0  0  0  0  0  0  0
   -7.8603   -1.5364  -21.7020 C   0  0  0  0  0  0  0  0  0  0  0  0
   -8.3831   -0.4476  -21.5662 O   0  0  0  0  0  0  0  0  0  0  0  0
   -6.7959   -1.9821  -20.9528 N   0  0  0  0  0  0  0  0  0  0  0  0
   -6.1662   -1.1552  -19.9919 C   0  0  0  0  0  0  0  0  0  0  0  0
   -6.5462   -1.2407  -18.6784 C   0  0  0  0  0  0  0  0  0  0  0  0
   -6.0194   -0.4931  -17.6751 N   0  0  0  0  0  0  0  0  0  0  0  0
   -5.0785    0.3624  -18.0038 C   0  0  0  0  0  0  0  0  0  0  0  0
   -4.5829    0.5433  -19.3292 C   0  0  0  0  0  0  0  0  0  0  0  0
   -3.5625    1.4823  -19.6346 C   0  0  0  0  0  0  0  0  0  0  0  0
   -3.0988    1.6174  -20.9145 C   0  0  0  0  0  0  0  0  0  0  0  0
   -3.6286    0.8204  -21.9539 C   0  0  0  0  0  0  0  0  0  0  0  0
   -4.6256   -0.0856  -21.6891 C   0  0  0  0  0  0  0  0  0  0  0  0
   -5.1333   -0.2427  -20.3668 C   0  0  0  0  0  0  0  0  0  0  0  0
   -6.3258   -3.3007  -21.3121 C   0  0  0  0  0  0  0  0  0  0  0  0
   -7.5407   -3.8784  -22.0580 C   0  0  2  0  0  0  0  0  0  0  0  0
   -7.2261   -5.0589  -22.9791 C   0  0  0  0  0  0  0  0  0  0  0  0
   -6.6821   -6.5149  -22.0896 S   0  0  0  0  0  0  0  0  0  0  0  0
   -7.0424   -7.6708  -22.8991 O   0  0  0  0  0  0  0  0  0  0  0  0
   -7.0846   -6.3872  -20.7001 O   0  0  0  0  0  0  0  0  0  0  0  0
   -5.0409   -6.3830  -22.0691 N   0  0  0  0  0  0  0  0  0  0  0  0
   -4.2191   -6.7930  -23.1882 C   0  0  0  0  0  0  0  0  0  0  0  0
   -9.7190   -2.7281  -22.9315 C   0  0  0  0  0  0  0  0  0  0  0  0
  -10.5540   -3.5983  -22.2178 C   0  0  0  0  0  0  0  0  0  0  0  0
  -11.9291   -3.5219  -22.3663 C   0  0  0  0  0  0  0  0  0  0  0  0
  -12.9431   -4.5940  -21.4367 Cl  0  0  0  0  0  0  0  0  0  0  0  0
  -12.5284   -2.5974  -23.2220 C   0  0  0  0  0  0  0  0  0  0  0  0
  -11.7110   -1.7504  -23.9437 C   0  0  0  0  0  0  0  0  0  0  0  0
  -10.3246   -1.8241  -23.8170 C   0  0  0  0  0  0  0  0  0  0  0  0
   -9.5140   -0.8937  -24.6657 C   0  0  0  0  0  0  0  0  0  0  0  0
  -10.0228    0.0318  -25.2833 O   0  0  0  0  0  0  0  0  0  0  0  0
   -5.7031    2.4821  -22.9856 H   0  0  0  0  0  0  0  0  0  0  0  0
   -7.3029    2.8054  -22.2661 H   0  0  0  0  0  0  0  0  0  0  0  0
   -6.8695    3.5158  -23.8442 H   0  0  0  0  0  0  0  0  0  0  0  0
   -7.9645    0.8741  -23.2850 H   0  0  0  0  0  0  0  0  0  0  0  0
   -7.9275   -0.0936  -26.4741 H   0  0  0  0  0  0  0  0  0  0  0  0
   -6.4644   -0.8720  -25.8672 H   0  0  0  0  0  0  0  0  0  0  0  0
   -7.7145   -3.1789  -24.7638 H   0  0  0  0  0  0  0  0  0  0  0  0
   -6.5056   -2.1439  -23.9716 H   0  0  0  0  0  0  0  0  0  0  0  0
   -7.3326   -1.9385  -18.3952 H   0  0  0  0  0  0  0  0  0  0  0  0
   -4.6435    0.9613  -17.2021 H   0  0  0  0  0  0  0  0  0  0  0  0
   -3.1675    2.0897  -18.8261 H   0  0  0  0  0  0  0  0  0  0  0  0
   -2.3262    2.3439  -21.1491 H   0  0  0  0  0  0  0  0  0  0  0  0
   -3.2694    0.9487  -22.9723 H   0  0  0  0  0  0  0  0  0  0  0  0
   -5.0266   -0.6938  -22.4952 H   0  0  0  0  0  0  0  0  0  0  0  0
   -5.4360   -3.2488  -21.9627 H   0  0  0  0  0  0  0  0  0  0  0  0
   -6.0564   -3.8711  -20.4186 H   0  0  0  0  0  0  0  0  0  0  0  0
   -8.2320   -4.2305  -21.2923 H   0  0  0  0  0  0  0  0  0  0  0  0
   -6.4390   -4.8157  -23.7041 H   0  0  0  0  0  0  0  0  0  0  0  0
   -8.1145   -5.3712  -23.5338 H   0  0  0  0  0  0  0  0  0  0  0  0
   -4.6828   -5.6975  -21.4183 H   0  0  0  0  0  0  0  0  0  0  0  0
   -4.5147   -7.7926  -23.4999 H   0  0  0  0  0  0  0  0  0  0  0  0
   -3.1787   -6.8242  -22.8635 H   0  0  0  0  0  0  0  0  0  0  0  0
   -4.2787   -6.1400  -24.0660 H   0  0  0  0  0  0  0  0  0  0  0  0
  -10.1537   -4.3442  -21.5407 H   0  0  0  0  0  0  0  0  0  0  0  0
  -13.6109   -2.5573  -23.3049 H   0  0  0  0  0  0  0  0  0  0  0  0
  -12.1230   -1.0122  -24.6227 H   0  0  0  0  0  0  0  0  0  0  0  0
  1  2  1  0
  2  3  1  0
  3  4  2  0
  3  5  1  0
  5  6  1  0
  6  7  1  0
  8  7  1  6
  8  9  1  0
  9 10  2  0
  9 11  1  0
 11 12  1  0
 12 13  2  0
 13 14  1  0
 14 15  2  0
 15 16  1  0
 16 17  2  0
 17 18  1  0
 18 19  2  0
 19 20  1  0
 20 21  2  0
 11 22  1  0
 22 23  1  0
 23 24  1  0
 24 25  1  0
 25 26  2  0
 25 27  2  0
 25 28  1  0
 28 29  1  0
  8 30  1  0
 30 31  2  0
 31 32  1  0
 32 33  1  0
 32 34  2  0
 34 35  1  0
 35 36  2  0
 36 37  1  0
 37 38  2  0
 37  6  1  0
 23  8  1  0
 36 30  1  0
 21 12  1  0
 21 16  1  0
  1 39  1  0
  1 40  1  0
  1 41  1  0
  2 42  1  0
  5 43  1  0
  5 44  1  0
  7 45  1  0
  7 46  1  0
 13 47  1  0
 15 48  1  0
 17 49  1  0
 18 50  1  0
 19 51  1  0
 20 52  1  0
 22 53  1  0
 22 54  1  0
 23 55  1  1
 24 56  1  0
 24 57  1  0
 28 58  1  0
 29 59  1  0
 29 60  1  0
 29 61  1  0
 31 62  1  0
 34 63  1  0
 35 64  1  0
M  END
>  <RMSD>  (26) 
0.059267466601798734

$$$$

     RDKit          3D

 55 60  0  0  0  0  0  0  0  0999 V2000
   -7.2318   -5.0323  -23.0321 C   0  0  0  0  0  0  0  0  0  0  0  0
   -7.5580   -3.8758  -22.0996 C   0  0  1  0  0  0  0  0  0  0  0  0
   -6.3510   -3.2972  -21.3533 C   0  0  0  0  0  0  0  0  0  0  0  0
   -6.8138   -1.9758  -20.9717 N   0  0  0  0  0  0  0  0  0  0  0  0
   -6.1776   -1.1527  -20.0068 C   0  0  0  0  0  0  0  0  0  0  0  0
   -6.5448   -1.2445  -18.6882 C   0  0  0  0  0  0  0  0  0  0  0  0
   -6.0136   -0.5035  -17.6839 N   0  0  0  0  0  0  0  0  0  0  0  0
   -5.0734    0.3597  -17.9994 C   0  0  0  0  0  0  0  0  0  0  0  0
   -4.5722    0.5390  -19.3220 C   0  0  0  0  0  0  0  0  0  0  0  0
   -3.5558    1.4892  -19.6294 C   0  0  0  0  0  0  0  0  0  0  0  0
   -3.1035    1.6267  -20.9146 C   0  0  0  0  0  0  0  0  0  0  0  0
   -3.6302    0.8189  -21.9497 C   0  0  0  0  0  0  0  0  0  0  0  0
   -4.6239   -0.0899  -21.6846 C   0  0  0  0  0  0  0  0  0  0  0  0
   -5.1248   -0.2482  -20.3625 C   0  0  0  0  0  0  0  0  0  0  0  0
   -7.8815   -1.5307  -21.7229 C   0  0  0  0  0  0  0  0  0  0  0  0
   -8.4107   -0.4502  -21.5833 O   0  0  0  0  0  0  0  0  0  0  0  0
   -8.2330   -2.6376  -22.7527 C   0  0  1  0  0  0  0  0  0  0  0  0
   -7.5897   -2.2868  -24.1211 C   0  0  0  0  0  0  0  0  0  0  0  0
   -8.1619   -1.0901  -24.7120 N   0  0  0  0  0  0  0  0  0  0  0  0
   -7.3164   -0.2857  -25.5729 C   0  0  0  0  0  0  0  0  0  0  0  0
   -6.7298    0.8990  -24.8813 C   0  0  0  0  0  0  0  0  0  0  0  0
   -7.3454    1.6824  -23.9720 C   0  0  0  0  0  0  0  0  0  0  0  0
   -6.4830    2.6868  -23.6419 O   0  0  0  0  0  0  0  0  0  0  0  0
   -5.3810    2.4375  -24.3738 C   0  0  0  0  0  0  0  0  0  0  0  0
   -5.4519    1.3852  -25.1210 N   0  0  0  0  0  0  0  0  0  0  0  0
   -9.5003   -0.8183  -24.6527 C   0  0  0  0  0  0  0  0  0  0  0  0
   -9.9944    0.1430  -25.2285 O   0  0  0  0  0  0  0  0  0  0  0  0
  -10.3293   -1.7836  -23.8449 C   0  0  0  0  0  0  0  0  0  0  0  0
  -11.7200   -1.7250  -23.9717 C   0  0  0  0  0  0  0  0  0  0  0  0
  -12.5327   -2.5796  -23.2528 C   0  0  0  0  0  0  0  0  0  0  0  0
  -11.9206   -3.5021  -22.4123 C   0  0  0  0  0  0  0  0  0  0  0  0
  -12.6908   -4.3361  -21.6952 F   0  0  0  0  0  0  0  0  0  0  0  0
  -10.5510   -3.5891  -22.2614 C   0  0  0  0  0  0  0  0  0  0  0  0
   -9.7290   -2.7120  -22.9760 C   0  0  0  0  0  0  0  0  0  0  0  0
   -6.4527   -4.7567  -23.7465 H   0  0  0  0  0  0  0  0  0  0  0  0
   -6.8751   -5.9046  -22.4781 H   0  0  0  0  0  0  0  0  0  0  0  0
   -8.1041   -5.3427  -23.6157 H   0  0  0  0  0  0  0  0  0  0  0  0
   -8.2313   -4.2493  -21.3239 H   0  0  0  0  0  0  0  0  0  0  0  0
   -6.0905   -3.8829  -20.4697 H   0  0  0  0  0  0  0  0  0  0  0  0
   -5.4662   -3.2760  -22.0127 H   0  0  0  0  0  0  0  0  0  0  0  0
   -7.3283   -1.9388  -18.3922 H   0  0  0  0  0  0  0  0  0  0  0  0
   -4.6528    0.9649  -17.1929 H   0  0  0  0  0  0  0  0  0  0  0  0
   -3.1526    2.1110  -18.8324 H   0  0  0  0  0  0  0  0  0  0  0  0
   -2.3319    2.3557  -21.1516 H   0  0  0  0  0  0  0  0  0  0  0  0
   -3.2651    0.9285  -22.9681 H   0  0  0  0  0  0  0  0  0  0  0  0
   -5.0394   -0.7024  -22.4804 H   0  0  0  0  0  0  0  0  0  0  0  0
   -7.7249   -3.1233  -24.8204 H   0  0  0  0  0  0  0  0  0  0  0  0
   -6.5151   -2.1206  -23.9916 H   0  0  0  0  0  0  0  0  0  0  0  0
   -7.9167    0.0468  -26.4258 H   0  0  0  0  0  0  0  0  0  0  0  0
   -6.5061   -0.9094  -25.9586 H   0  0  0  0  0  0  0  0  0  0  0  0
   -8.3220    1.6758  -23.5127 H   0  0  0  0  0  0  0  0  0  0  0  0
   -4.5417    3.1160  -24.2632 H   0  0  0  0  0  0  0  0  0  0  0  0
  -12.1555   -0.9978  -24.6465 H   0  0  0  0  0  0  0  0  0  0  0  0
  -13.6178   -2.5417  -23.3196 H   0  0  0  0  0  0  0  0  0  0  0  0
  -10.1480   -4.3419  -21.5918 H   0  0  0  0  0  0  0  0  0  0  0  0
  1  2  1  0
  2  3  1  0
  3  4  1  0
  4  5  1  0
  5  6  2  0
  6  7  1  0
  7  8  2  0
  8  9  1  0
  9 10  2  0
 10 11  1  0
 11 12  2  0
 12 13  1  0
 13 14  2  0
  4 15  1  0
 15 16  2  0
 15 17  1  0
 17 18  1  6
 18 19  1  0
 19 20  1  0
 20 21  1  0
 21 22  2  0
 22 23  1  0
 23 24  1  0
 24 25  2  0
 19 26  1  0
 26 27  2  0
 26 28  1  0
 28 29  2  0
 29 30  1  0
 30 31  2  0
 31 32  1  0
 31 33  1  0
 33 34  2  0
 17  2  1  0
 25 21  1  0
 34 28  1  0
 14  5  1  0
 34 17  1  0
 14  9  1  0
  1 35  1  0
  1 36  1  0
  1 37  1  0
  2 38  1  1
  3 39  1  0
  3 40  1  0
  6 41  1  0
  8 42  1  0
 10 43  1  0
 11 44  1  0
 12 45  1  0
 13 46  1  0
 18 47  1  0
 18 48  1  0
 20 49  1  0
 20 50  1  0
 22 51  1  0
 24 52  1  0
 29 53  1  0
 30 54  1  0
 33 55  1  0
M  END
>  <RMSD>  (27) 
0.055379102243114785

$$$$

     RDKit          3D

 66 71  0  0  0  0  0  0  0  0999 V2000
   -6.7713    2.6222  -23.2014 C   0  0  0  0  0  0  0  0  0  0  0  0
   -7.3422    1.4427  -23.8269 N   0  0  0  0  0  0  0  0  0  0  0  0
   -6.8497    1.0158  -25.0115 C   0  0  0  0  0  0  0  0  0  0  0  0
   -6.0292    1.6479  -25.6672 O   0  0  0  0  0  0  0  0  0  0  0  0
   -7.3588   -0.3214  -25.5671 C   0  0  0  0  0  0  0  0  0  0  0  0
   -8.1641   -1.1415  -24.6902 N   0  0  0  0  0  0  0  0  0  0  0  0
   -7.5739   -2.3302  -24.0936 C   0  0  0  0  0  0  0  0  0  0  0  0
   -8.2139   -2.6652  -22.7205 C   0  0  2  0  0  0  0  0  0  0  0  0
   -7.8531   -1.5516  -21.7065 C   0  0  0  0  0  0  0  0  0  0  0  0
   -8.3791   -0.4611  -21.5866 O   0  0  0  0  0  0  0  0  0  0  0  0
   -6.7941   -1.9909  -20.9487 N   0  0  0  0  0  0  0  0  0  0  0  0
   -6.1669   -1.1585  -19.9919 C   0  0  0  0  0  0  0  0  0  0  0  0
   -6.5463   -1.2397  -18.6775 C   0  0  0  0  0  0  0  0  0  0  0  0
   -6.0207   -0.4904  -17.6737 N   0  0  0  0  0  0  0  0  0  0  0  0
   -5.0789    0.3637  -18.0033 C   0  0  0  0  0  0  0  0  0  0  0  0
   -4.5865    0.5437  -19.3303 C   0  0  0  0  0  0  0  0  0  0  0  0
   -3.5647    1.4818  -19.6345 C   0  0  0  0  0  0  0  0  0  0  0  0
   -3.0999    1.6172  -20.9139 C   0  0  0  0  0  0  0  0  0  0  0  0
   -3.6298    0.8220  -21.9537 C   0  0  0  0  0  0  0  0  0  0  0  0
   -4.6279   -0.0830  -21.6898 C   0  0  0  0  0  0  0  0  0  0  0  0
   -5.1365   -0.2422  -20.3677 C   0  0  0  0  0  0  0  0  0  0  0  0
   -6.3221   -3.3113  -21.3036 C   0  0  0  0  0  0  0  0  0  0  0  0
   -7.5470   -3.8907  -22.0324 C   0  0  2  0  0  0  0  0  0  0  0  0
   -7.2542   -5.1018  -22.9338 C   0  0  0  0  0  0  0  0  0  0  0  0
   -6.8667   -6.3171  -22.2446 N   0  0  0  0  0  0  0  0  0  0  0  0
   -5.6220   -6.5445  -21.7473 C   0  0  0  0  0  0  0  0  0  0  0  0
   -4.4590   -5.9280  -22.2411 C   0  0  0  0  0  0  0  0  0  0  0  0
   -3.2759   -6.2603  -21.6149 C   0  0  0  0  0  0  0  0  0  0  0  0
   -3.2028   -7.0730  -20.5588 N   0  0  0  0  0  0  0  0  0  0  0  0
   -4.3632   -7.5911  -20.1876 C   0  0  0  0  0  0  0  0  0  0  0  0
   -5.5529   -7.4232  -20.7391 N   0  0  0  0  0  0  0  0  0  0  0  0
   -9.7128   -2.7399  -22.9284 C   0  0  0  0  0  0  0  0  0  0  0  0
  -10.5493   -3.6069  -22.2139 C   0  0  0  0  0  0  0  0  0  0  0  0
  -11.9236   -3.5276  -22.3620 C   0  0  0  0  0  0  0  0  0  0  0  0
  -12.9377   -4.6003  -21.4372 Cl  0  0  0  0  0  0  0  0  0  0  0  0
  -12.5235   -2.6029  -23.2147 C   0  0  0  0  0  0  0  0  0  0  0  0
  -11.7075   -1.7571  -23.9365 C   0  0  0  0  0  0  0  0  0  0  0  0
  -10.3207   -1.8349  -23.8111 C   0  0  0  0  0  0  0  0  0  0  0  0
   -9.5137   -0.9098  -24.6686 C   0  0  0  0  0  0  0  0  0  0  0  0
  -10.0336    0.0054  -25.2922 O   0  0  0  0  0  0  0  0  0  0  0  0
   -6.8714    3.5035  -23.8434 H   0  0  0  0  0  0  0  0  0  0  0  0
   -7.3029    2.8053  -22.2645 H   0  0  0  0  0  0  0  0  0  0  0  0
   -5.7055    2.4739  -22.9819 H   0  0  0  0  0  0  0  0  0  0  0  0
   -7.9293    0.8441  -23.2564 H   0  0  0  0  0  0  0  0  0  0  0  0
   -7.9376   -0.0921  -26.4666 H   0  0  0  0  0  0  0  0  0  0  0  0
   -6.4696   -0.8762  -25.8819 H   0  0  0  0  0  0  0  0  0  0  0  0
   -7.7065   -3.1914  -24.7610 H   0  0  0  0  0  0  0  0  0  0  0  0
   -6.4991   -2.1520  -23.9745 H   0  0  0  0  0  0  0  0  0  0  0  0
   -7.3335   -1.9378  -18.3960 H   0  0  0  0  0  0  0  0  0  0  0  0
   -4.6372    0.9622  -17.2047 H   0  0  0  0  0  0  0  0  0  0  0  0
   -3.1663    2.0872  -18.8270 H   0  0  0  0  0  0  0  0  0  0  0  0
   -2.3246    2.3409  -21.1468 H   0  0  0  0  0  0  0  0  0  0  0  0
   -3.2664    0.9500  -22.9710 H   0  0  0  0  0  0  0  0  0  0  0  0
   -5.0237   -0.6884  -22.4997 H   0  0  0  0  0  0  0  0  0  0  0  0
   -6.0277   -3.8660  -20.4091 H   0  0  0  0  0  0  0  0  0  0  0  0
   -5.4387   -3.2468  -21.9597 H   0  0  0  0  0  0  0  0  0  0  0  0
   -8.2358   -4.1991  -21.2409 H   0  0  0  0  0  0  0  0  0  0  0  0
   -8.1221   -5.3390  -23.5601 H   0  0  0  0  0  0  0  0  0  0  0  0
   -6.4420   -4.8559  -23.6206 H   0  0  0  0  0  0  0  0  0  0  0  0
   -7.5741   -6.8060  -21.7113 H   0  0  0  0  0  0  0  0  0  0  0  0
   -4.4844   -5.1977  -23.0372 H   0  0  0  0  0  0  0  0  0  0  0  0
   -2.3236   -5.8483  -21.9487 H   0  0  0  0  0  0  0  0  0  0  0  0
   -4.3495   -8.2141  -19.3064 H   0  0  0  0  0  0  0  0  0  0  0  0
  -10.1539   -4.3592  -21.5421 H   0  0  0  0  0  0  0  0  0  0  0  0
  -13.6051   -2.5653  -23.3001 H   0  0  0  0  0  0  0  0  0  0  0  0
  -12.1233   -1.0204  -24.6149 H   0  0  0  0  0  0  0  0  0  0  0  0
  1  2  1  0
  2  3  1  0
  3  4  2  0
  3  5  1  0
  5  6  1  0
  6  7  1  0
  8  7  1  6
  8  9  1  0
  9 10  2  0
  9 11  1  0
 11 12  1  0
 12 13  2  0
 13 14  1  0
 14 15  2  0
 15 16  1  0
 16 17  2  0
 17 18  1  0
 18 19  2  0
 19 20  1  0
 20 21  2  0
 11 22  1  0
 22 23  1  0
 23 24  1  0
 24 25  1  0
 25 26  1  0
 26 27  2  0
 27 28  1  0
 28 29  2  0
 29 30  1  0
 30 31  2  0
  8 32  1  0
 32 33  2  0
 33 34  1  0
 34 35  1  0
 34 36  2  0
 36 37  1  0
 37 38  2  0
 38 39  1  0
 39 40  2  0
 39  6  1  0
 23  8  1  0
 31 26  1  0
 38 32  1  0
 21 12  1  0
 21 16  1  0
  1 41  1  0
  1 42  1  0
  1 43  1  0
  2 44  1  0
  5 45  1  0
  5 46  1  0
  7 47  1  0
  7 48  1  0
 13 49  1  0
 15 50  1  0
 17 51  1  0
 18 52  1  0
 19 53  1  0
 20 54  1  0
 22 55  1  0
 22 56  1  0
 23 57  1  1
 24 58  1  0
 24 59  1  0
 25 60  1  0
 27 61  1  0
 28 62  1  0
 30 63  1  0
 33 64  1  0
 36 65  1  0
 37 66  1  0
M  END
>  <RMSD>  (28) 
0.061190582904894805

$$$$

     RDKit          3D

 43 45  0  0  0  0  0  0  0  0999 V2000
   -9.2549    0.8447  -26.3533 C   0  0  0  0  0  0  0  0  0  0  0  0
   -9.4622   -0.6384  -26.6354 C   0  0  0  0  0  0  0  0  0  0  0  0
   -9.1056   -1.6005  -25.4814 C   0  0  0  0  0  0  0  0  0  0  0  0
  -10.0760   -1.5281  -24.2826 C   0  0  0  0  0  0  0  0  0  0  0  0
   -9.7205   -2.5531  -23.2016 C   0  0  0  0  0  0  0  0  0  0  0  0
   -8.3246   -2.4762  -22.7782 N   0  0  0  0  0  0  0  0  0  0  0  0
   -8.0190   -1.8144  -21.5982 C   0  0  0  0  0  0  0  0  0  0  0  0
   -8.7967   -1.0478  -21.0600 O   0  0  0  0  0  0  0  0  0  0  0  0
   -6.6837   -2.2172  -20.9564 C   0  0  0  0  0  0  0  0  0  0  0  0
   -6.1039   -1.2341  -19.9784 C   0  0  0  0  0  0  0  0  0  0  0  0
   -6.5215   -1.2578  -18.6753 C   0  0  0  0  0  0  0  0  0  0  0  0
   -6.0360   -0.4711  -17.6790 N   0  0  0  0  0  0  0  0  0  0  0  0
   -5.0876    0.3769  -18.0102 C   0  0  0  0  0  0  0  0  0  0  0  0
   -4.5621    0.5246  -19.3233 C   0  0  0  0  0  0  0  0  0  0  0  0
   -3.5519    1.4711  -19.6295 C   0  0  0  0  0  0  0  0  0  0  0  0
   -3.1016    1.6170  -20.9143 C   0  0  0  0  0  0  0  0  0  0  0  0
   -3.6439    0.8200  -21.9470 C   0  0  0  0  0  0  0  0  0  0  0  0
   -4.6128   -0.1134  -21.6760 C   0  0  0  0  0  0  0  0  0  0  0  0
   -5.0994   -0.2905  -20.3512 C   0  0  0  0  0  0  0  0  0  0  0  0
   -7.3989   -2.5538  -23.9057 C   0  0  0  0  0  0  0  0  0  0  0  0
   -7.6823   -1.4325  -24.9145 C   0  0  0  0  0  0  0  0  0  0  0  0
   -8.2136    1.0539  -26.1024 H   0  0  0  0  0  0  0  0  0  0  0  0
   -9.4960    1.4680  -27.2183 H   0  0  0  0  0  0  0  0  0  0  0  0
   -9.8782    1.1873  -25.5246 H   0  0  0  0  0  0  0  0  0  0  0  0
  -10.5100   -0.8128  -26.9153 H   0  0  0  0  0  0  0  0  0  0  0  0
   -8.8619   -0.9137  -27.5122 H   0  0  0  0  0  0  0  0  0  0  0  0
   -9.1727   -2.6124  -25.9236 H   0  0  0  0  0  0  0  0  0  0  0  0
  -10.0473   -0.5309  -23.8183 H   0  0  0  0  0  0  0  0  0  0  0  0
  -11.1146   -1.6941  -24.6007 H   0  0  0  0  0  0  0  0  0  0  0  0
  -10.3576   -2.4037  -22.3307 H   0  0  0  0  0  0  0  0  0  0  0  0
   -9.9095   -3.5687  -23.5827 H   0  0  0  0  0  0  0  0  0  0  0  0
   -5.9522   -2.4836  -21.7206 H   0  0  0  0  0  0  0  0  0  0  0  0
   -6.8923   -3.1589  -20.4277 H   0  0  0  0  0  0  0  0  0  0  0  0
   -7.3020   -1.9618  -18.3733 H   0  0  0  0  0  0  0  0  0  0  0  0
   -4.6838    1.0087  -17.2183 H   0  0  0  0  0  0  0  0  0  0  0  0
   -3.1592    2.0899  -18.8276 H   0  0  0  0  0  0  0  0  0  0  0  0
   -2.3418    2.3565  -21.1487 H   0  0  0  0  0  0  0  0  0  0  0  0
   -3.2926    0.9579  -22.9654 H   0  0  0  0  0  0  0  0  0  0  0  0
   -5.0165   -0.7121  -22.4902 H   0  0  0  0  0  0  0  0  0  0  0  0
   -6.3682   -2.4984  -23.5544 H   0  0  0  0  0  0  0  0  0  0  0  0
   -7.5339   -3.5281  -24.3923 H   0  0  0  0  0  0  0  0  0  0  0  0
   -7.6157   -0.4766  -24.3716 H   0  0  0  0  0  0  0  0  0  0  0  0
   -6.9098   -1.4075  -25.6972 H   0  0  0  0  0  0  0  0  0  0  0  0
  1  2  1  0
  2  3  1  0
  3  4  1  0
  4  5  1  0
  5  6  1  0
  6  7  1  0
  7  8  2  0
  7  9  1  0
  9 10  1  0
 10 11  2  0
 11 12  1  0
 12 13  2  0
 13 14  1  0
 14 15  2  0
 15 16  1  0
 16 17  2  0
 17 18  1  0
 18 19  2  0
  6 20  1  0
 20 21  1  0
 21  3  1  0
 19 10  1  0
 19 14  1  0
  1 22  1  0
  1 23  1  0
  1 24  1  0
  2 25  1  0
  2 26  1  0
  3 27  1  0
  4 28  1  0
  4 29  1  0
  5 30  1  0
  5 31  1  0
  9 32  1  0
  9 33  1  0
 11 34  1  0
 13 35  1  0
 15 36  1  0
 16 37  1  0
 17 38  1  0
 18 39  1  0
 20 40  1  0
 20 41  1  0
 21 42  1  0
 21 43  1  0
M  END
>  <RMSD>  (29) 
0.04192261473055484

$$$$

     RDKit          3D

 46 50  0  0  0  0  0  0  0  0999 V2000
  -12.7582   -5.8110  -21.8045 N   0  0  0  0  0  0  0  0  0  0  0  0
  -12.6095   -4.4291  -20.8878 S   0  0  0  0  0  0  0  0  0  0  0  0
  -13.9063   -3.8374  -20.6110 O   0  0  0  0  0  0  0  0  0  0  0  0
  -11.7379   -4.7710  -19.7857 O   0  0  0  0  0  0  0  0  0  0  0  0
  -11.8116   -3.3969  -22.0542 C   0  0  0  0  0  0  0  0  0  0  0  0
  -12.6148   -2.6590  -22.9248 C   0  0  0  0  0  0  0  0  0  0  0  0
  -12.0074   -1.7752  -23.7969 C   0  0  0  0  0  0  0  0  0  0  0  0
  -10.6176   -1.6639  -23.7771 C   0  0  0  0  0  0  0  0  0  0  0  0
   -9.8156   -2.4118  -22.9060 C   0  0  0  0  0  0  0  0  0  0  0  0
  -10.4325   -3.3046  -22.0387 C   0  0  0  0  0  0  0  0  0  0  0  0
   -8.3317   -2.1666  -22.8185 C   0  0  2  0  0  0  0  0  0  0  0  0
   -7.7795   -1.5115  -24.1147 C   0  0  0  0  0  0  0  0  0  0  0  0
   -8.8401   -1.2673  -25.1858 C   0  0  0  0  0  0  0  0  0  0  0  0
  -10.0500   -0.7760  -24.6367 O   0  0  0  0  0  0  0  0  0  0  0  0
   -7.5901   -3.3667  -22.4354 N   0  0  0  0  0  0  0  0  0  0  0  0
   -6.6905   -3.1763  -21.4192 C   0  0  0  0  0  0  0  0  0  0  0  0
   -5.8578   -3.9369  -20.9830 O   0  0  0  0  0  0  0  0  0  0  0  0
   -6.9302   -1.8726  -20.9458 N   0  0  0  0  0  0  0  0  0  0  0  0
   -6.1619   -1.1742  -19.9738 C   0  0  0  0  0  0  0  0  0  0  0  0
   -6.4897   -1.2872  -18.6527 C   0  0  0  0  0  0  0  0  0  0  0  0
   -5.9489   -0.5373  -17.6583 N   0  0  0  0  0  0  0  0  0  0  0  0
   -5.0413    0.3452  -18.0056 C   0  0  0  0  0  0  0  0  0  0  0  0
   -4.5816    0.5394  -19.3403 C   0  0  0  0  0  0  0  0  0  0  0  0
   -3.5908    1.5032  -19.6603 C   0  0  0  0  0  0  0  0  0  0  0  0
   -3.1439    1.6383  -20.9467 C   0  0  0  0  0  0  0  0  0  0  0  0
   -3.6665    0.8137  -21.9708 C   0  0  0  0  0  0  0  0  0  0  0  0
   -4.6377   -0.1134  -21.6883 C   0  0  0  0  0  0  0  0  0  0  0  0
   -5.1329   -0.2599  -20.3629 C   0  0  0  0  0  0  0  0  0  0  0  0
   -7.9911   -1.2568  -21.6113 C   0  0  0  0  0  0  0  0  0  0  0  0
   -8.4863   -0.2113  -21.2826 O   0  0  0  0  0  0  0  0  0  0  0  0
  -13.3463   -5.7285  -22.6317 H   0  0  0  0  0  0  0  0  0  0  0  0
  -13.0705   -6.5706  -21.2175 H   0  0  0  0  0  0  0  0  0  0  0  0
  -13.6964   -2.7868  -22.9033 H   0  0  0  0  0  0  0  0  0  0  0  0
  -12.5682   -1.1405  -24.4772 H   0  0  0  0  0  0  0  0  0  0  0  0
   -9.8567   -3.9202  -21.3523 H   0  0  0  0  0  0  0  0  0  0  0  0
   -6.9961   -2.1581  -24.5163 H   0  0  0  0  0  0  0  0  0  0  0  0
   -7.3103   -0.5616  -23.8413 H   0  0  0  0  0  0  0  0  0  0  0  0
   -8.5275   -0.5018  -25.8964 H   0  0  0  0  0  0  0  0  0  0  0  0
   -9.0574   -2.1876  -25.7398 H   0  0  0  0  0  0  0  0  0  0  0  0
   -7.5292   -4.1853  -23.0189 H   0  0  0  0  0  0  0  0  0  0  0  0
   -7.2548   -2.0051  -18.3716 H   0  0  0  0  0  0  0  0  0  0  0  0
   -4.6136    0.9556  -17.2103 H   0  0  0  0  0  0  0  0  0  0  0  0
   -3.2124    2.1273  -18.8551 H   0  0  0  0  0  0  0  0  0  0  0  0
   -2.3996    2.3909  -21.1946 H   0  0  0  0  0  0  0  0  0  0  0  0
   -3.3048    0.9310  -22.9892 H   0  0  0  0  0  0  0  0  0  0  0  0
   -5.0257   -0.7625  -22.4683 H   0  0  0  0  0  0  0  0  0  0  0  0
  1  2  1  0
  2  3  2  0
  2  4  2  0
  2  5  1  0
  5  6  2  0
  6  7  1  0
  7  8  2  0
  8  9  1  0
  9 10  2  0
  9 11  1  0
 11 12  1  0
 12 13  1  0
 13 14  1  0
 11 15  1  1
 15 16  1  0
 16 17  2  0
 16 18  1  0
 18 19  1  0
 19 20  2  0
 20 21  1  0
 21 22  2  0
 22 23  1  0
 23 24  2  0
 24 25  1  0
 25 26  2  0
 26 27  1  0
 27 28  2  0
 18 29  1  0
 29 30  2  0
 10  5  1  0
 29 11  1  0
 14  8  1  0
 28 19  1  0
 28 23  1  0
  1 31  1  0
  1 32  1  0
  6 33  1  0
  7 34  1  0
 10 35  1  0
 12 36  1  0
 12 37  1  0
 13 38  1  0
 13 39  1  0
 15 40  1  0
 20 41  1  0
 22 42  1  0
 24 43  1  0
 25 44  1  0
 26 45  1  0
 27 46  1  0
M  END
>  <RMSD>  (30) 
0.14234493934740358

$$$$

     RDKit          3D

 54 57  0  0  0  0  0  0  0  0999 V2000
   -4.6893   -1.9155  -26.8508 C   0  0  0  0  0  0  0  0  0  0  0  0
   -5.6382   -2.0412  -25.8107 O   0  0  0  0  0  0  0  0  0  0  0  0
   -5.9945   -3.3044  -25.4297 C   0  0  0  0  0  0  0  0  0  0  0  0
   -5.3999   -4.4281  -25.9901 C   0  0  0  0  0  0  0  0  0  0  0  0
   -5.7923   -5.6961  -25.5932 C   0  0  0  0  0  0  0  0  0  0  0  0
   -6.7903   -5.8469  -24.6453 C   0  0  0  0  0  0  0  0  0  0  0  0
   -7.3767   -4.7207  -24.0742 C   0  0  0  0  0  0  0  0  0  0  0  0
   -6.9765   -3.4362  -24.4266 C   0  0  0  0  0  0  0  0  0  0  0  0
   -7.6026   -2.1724  -23.8420 C   0  0  1  0  0  0  0  0  0  0  0  0
   -8.4547   -1.4403  -24.8956 C   0  0  0  0  0  0  0  0  0  0  0  0
   -9.4493   -0.4636  -24.2685 C   0  0  1  0  0  0  0  0  0  0  0  0
  -10.1558    0.2878  -25.3826 C   0  0  0  0  0  0  0  0  0  0  0  0
  -10.4821   -1.2805  -23.4622 C   0  0  0  0  0  0  0  0  0  0  0  0
   -9.8592   -2.5648  -22.8872 C   0  0  0  0  0  0  0  0  0  0  0  0
   -8.4254   -2.3995  -22.6447 N   0  0  0  0  0  0  0  0  0  0  0  0
   -8.0805   -1.8541  -21.4234 C   0  0  0  0  0  0  0  0  0  0  0  0
   -8.8735   -1.2363  -20.7389 O   0  0  0  0  0  0  0  0  0  0  0  0
   -6.6743   -2.2038  -20.9460 C   0  0  0  0  0  0  0  0  0  0  0  0
   -6.0983   -1.2259  -19.9751 C   0  0  0  0  0  0  0  0  0  0  0  0
   -6.5158   -1.2573  -18.6695 C   0  0  0  0  0  0  0  0  0  0  0  0
   -6.0292   -0.4805  -17.6701 N   0  0  0  0  0  0  0  0  0  0  0  0
   -5.0895    0.3748  -18.0028 C   0  0  0  0  0  0  0  0  0  0  0  0
   -4.5696    0.5278  -19.3203 C   0  0  0  0  0  0  0  0  0  0  0  0
   -3.5596    1.4714  -19.6348 C   0  0  0  0  0  0  0  0  0  0  0  0
   -3.1086    1.6171  -20.9165 C   0  0  0  0  0  0  0  0  0  0  0  0
   -3.6435    0.8231  -21.9540 C   0  0  0  0  0  0  0  0  0  0  0  0
   -4.6138   -0.1104  -21.6779 C   0  0  0  0  0  0  0  0  0  0  0  0
   -5.1008   -0.2839  -20.3526 C   0  0  0  0  0  0  0  0  0  0  0  0
   -4.5887   -0.8488  -27.0568 H   0  0  0  0  0  0  0  0  0  0  0  0
   -3.7117   -2.3195  -26.5550 H   0  0  0  0  0  0  0  0  0  0  0  0
   -5.0078   -2.4259  -27.7716 H   0  0  0  0  0  0  0  0  0  0  0  0
   -4.6356   -4.3195  -26.7477 H   0  0  0  0  0  0  0  0  0  0  0  0
   -5.3115   -6.5613  -26.0406 H   0  0  0  0  0  0  0  0  0  0  0  0
   -7.1187   -6.8369  -24.3487 H   0  0  0  0  0  0  0  0  0  0  0  0
   -8.1575   -4.8494  -23.3276 H   0  0  0  0  0  0  0  0  0  0  0  0
   -6.7979   -1.4865  -23.5419 H   0  0  0  0  0  0  0  0  0  0  0  0
   -7.7974   -0.9259  -25.5957 H   0  0  0  0  0  0  0  0  0  0  0  0
   -9.0135   -2.1884  -25.4786 H   0  0  0  0  0  0  0  0  0  0  0  0
   -8.9257    0.2575  -23.6099 H   0  0  0  0  0  0  0  0  0  0  0  0
   -9.4593    0.8581  -26.0065 H   0  0  0  0  0  0  0  0  0  0  0  0
  -10.6166   -0.4898  -26.0016 H   0  0  0  0  0  0  0  0  0  0  0  0
  -10.9125    0.9862  -25.0028 H   0  0  0  0  0  0  0  0  0  0  0  0
  -10.8782   -0.6710  -22.6490 H   0  0  0  0  0  0  0  0  0  0  0  0
  -11.3329   -1.5633  -24.1061 H   0  0  0  0  0  0  0  0  0  0  0  0
  -10.3474   -2.8336  -21.9402 H   0  0  0  0  0  0  0  0  0  0  0  0
   -9.9642   -3.4005  -23.5914 H   0  0  0  0  0  0  0  0  0  0  0  0
   -6.0320   -2.3513  -21.8157 H   0  0  0  0  0  0  0  0  0  0  0  0
   -6.7569   -3.1880  -20.4557 H   0  0  0  0  0  0  0  0  0  0  0  0
   -7.3029   -1.9529  -18.3785 H   0  0  0  0  0  0  0  0  0  0  0  0
   -4.6938    1.0045  -17.2040 H   0  0  0  0  0  0  0  0  0  0  0  0
   -3.1578    2.0816  -18.8310 H   0  0  0  0  0  0  0  0  0  0  0  0
   -2.3425    2.3513  -21.1532 H   0  0  0  0  0  0  0  0  0  0  0  0
   -3.2851    0.9540  -22.9717 H   0  0  0  0  0  0  0  0  0  0  0  0
   -5.0057   -0.7130  -22.4954 H   0  0  0  0  0  0  0  0  0  0  0  0
  1  2  1  0
  2  3  1  0
  3  4  2  0
  4  5  1  0
  5  6  2  0
  6  7  1  0
  7  8  2  0
  8  9  1  0
  9 10  1  0
 10 11  1  0
 11 12  1  0
 11 13  1  0
 13 14  1  0
 14 15  1  0
 15 16  1  0
 16 17  2  0
 16 18  1  0
 18 19  1  0
 19 20  2  0
 20 21  1  0
 21 22  2  0
 22 23  1  0
 23 24  2  0
 24 25  1  0
 25 26  2  0
 26 27  1  0
 27 28  2  0
  8  3  1  0
 15  9  1  0
 28 19  1  0
 28 23  1  0
  1 29  1  0
  1 30  1  0
  1 31  1  0
  4 32  1  0
  5 33  1  0
  6 34  1  0
  7 35  1  0
  9 36  1  1
 10 37  1  0
 10 38  1  0
 11 39  1  1
 12 40  1  0
 12 41  1  0
 12 42  1  0
 13 43  1  0
 13 44  1  0
 14 45  1  0
 14 46  1  0
 18 47  1  0
 18 48  1  0
 20 49  1  0
 22 50  1  0
 24 51  1  0
 25 52  1  0
 26 53  1  0
 27 54  1  0
M  END
>  <RMSD>  (31) 
0.04042957470607777

$$$$

     RDKit          3D

 58 63  0  0  0  0  0  0  0  0999 V2000
   -7.2313   -5.0353  -23.0320 C   0  0  0  0  0  0  0  0  0  0  0  0
   -7.5608   -3.8775  -22.0991 C   0  0  1  0  0  0  0  0  0  0  0  0
   -6.3524   -3.3007  -21.3528 C   0  0  0  0  0  0  0  0  0  0  0  0
   -6.8087   -1.9769  -20.9741 N   0  0  0  0  0  0  0  0  0  0  0  0
   -6.1741   -1.1564  -20.0035 C   0  0  0  0  0  0  0  0  0  0  0  0
   -6.5466   -1.2441  -18.6861 C   0  0  0  0  0  0  0  0  0  0  0  0
   -6.0161   -0.5009  -17.6815 N   0  0  0  0  0  0  0  0  0  0  0  0
   -5.0749    0.3597  -17.9986 C   0  0  0  0  0  0  0  0  0  0  0  0
   -4.5722    0.5394  -19.3205 C   0  0  0  0  0  0  0  0  0  0  0  0
   -3.5565    1.4877  -19.6318 C   0  0  0  0  0  0  0  0  0  0  0  0
   -3.1024    1.6229  -20.9158 C   0  0  0  0  0  0  0  0  0  0  0  0
   -3.6341    0.8218  -21.9540 C   0  0  0  0  0  0  0  0  0  0  0  0
   -4.6243   -0.0905  -21.6828 C   0  0  0  0  0  0  0  0  0  0  0  0
   -5.1235   -0.2513  -20.3599 C   0  0  0  0  0  0  0  0  0  0  0  0
   -7.8809   -1.5276  -21.7225 C   0  0  0  0  0  0  0  0  0  0  0  0
   -8.4116   -0.4539  -21.5736 O   0  0  0  0  0  0  0  0  0  0  0  0
   -8.2315   -2.6373  -22.7534 C   0  0  1  0  0  0  0  0  0  0  0  0
   -7.5859   -2.2864  -24.1225 C   0  0  0  0  0  0  0  0  0  0  0  0
   -8.1609   -1.0892  -24.7080 N   0  0  0  0  0  0  0  0  0  0  0  0
   -7.3161   -0.2674  -25.5477 C   0  0  0  0  0  0  0  0  0  0  0  0
   -6.6897    0.9256  -24.8381 C   0  0  0  0  0  0  0  0  0  0  0  0
   -5.5391    1.4738  -25.3420 C   0  0  0  0  0  0  0  0  0  0  0  0
   -4.9216    2.6164  -24.7176 C   0  0  0  0  0  0  0  0  0  0  0  0
   -3.9044    3.1918  -25.0668 O   0  0  0  0  0  0  0  0  0  0  0  0
   -5.6333    3.0382  -23.5792 N   0  0  0  0  0  0  0  0  0  0  0  0
   -6.7740    2.4286  -23.1497 C   0  0  0  0  0  0  0  0  0  0  0  0
   -7.3256    1.4063  -23.7252 N   0  0  0  0  0  0  0  0  0  0  0  0
   -9.5013   -0.8191  -24.6565 C   0  0  0  0  0  0  0  0  0  0  0  0
  -10.0029    0.1292  -25.2428 O   0  0  0  0  0  0  0  0  0  0  0  0
  -10.3261   -1.7832  -23.8491 C   0  0  0  0  0  0  0  0  0  0  0  0
  -11.7156   -1.7242  -23.9772 C   0  0  0  0  0  0  0  0  0  0  0  0
  -12.5282   -2.5777  -23.2572 C   0  0  0  0  0  0  0  0  0  0  0  0
  -11.9189   -3.5008  -22.4149 C   0  0  0  0  0  0  0  0  0  0  0  0
  -12.6921   -4.3339  -21.6990 F   0  0  0  0  0  0  0  0  0  0  0  0
  -10.5500   -3.5884  -22.2658 C   0  0  0  0  0  0  0  0  0  0  0  0
   -9.7266   -2.7118  -22.9803 C   0  0  0  0  0  0  0  0  0  0  0  0
   -6.8757   -5.9063  -22.4734 H   0  0  0  0  0  0  0  0  0  0  0  0
   -6.4485   -4.7586  -23.7449 H   0  0  0  0  0  0  0  0  0  0  0  0
   -8.1058   -5.3446  -23.6147 H   0  0  0  0  0  0  0  0  0  0  0  0
   -8.2288   -4.2534  -21.3184 H   0  0  0  0  0  0  0  0  0  0  0  0
   -6.0956   -3.8866  -20.4671 H   0  0  0  0  0  0  0  0  0  0  0  0
   -5.4675   -3.2765  -22.0123 H   0  0  0  0  0  0  0  0  0  0  0  0
   -7.3324   -1.9380  -18.3929 H   0  0  0  0  0  0  0  0  0  0  0  0
   -4.6535    0.9665  -17.1933 H   0  0  0  0  0  0  0  0  0  0  0  0
   -3.1510    2.1093  -18.8360 H   0  0  0  0  0  0  0  0  0  0  0  0
   -2.3286    2.3520  -21.1491 H   0  0  0  0  0  0  0  0  0  0  0  0
   -3.2668    0.9396  -22.9704 H   0  0  0  0  0  0  0  0  0  0  0  0
   -5.0382   -0.7030  -22.4798 H   0  0  0  0  0  0  0  0  0  0  0  0
   -7.7225   -3.1235  -24.8223 H   0  0  0  0  0  0  0  0  0  0  0  0
   -6.5091   -2.1255  -23.9896 H   0  0  0  0  0  0  0  0  0  0  0  0
   -6.5238   -0.9038  -25.9605 H   0  0  0  0  0  0  0  0  0  0  0  0
   -7.9106    0.0639  -26.4029 H   0  0  0  0  0  0  0  0  0  0  0  0
   -5.0535    1.0886  -26.2269 H   0  0  0  0  0  0  0  0  0  0  0  0
   -5.2497    3.8379  -23.0897 H   0  0  0  0  0  0  0  0  0  0  0  0
   -7.2389    2.8590  -22.2631 H   0  0  0  0  0  0  0  0  0  0  0  0
  -12.1548   -0.9985  -24.6519 H   0  0  0  0  0  0  0  0  0  0  0  0
  -13.6116   -2.5386  -23.3270 H   0  0  0  0  0  0  0  0  0  0  0  0
  -10.1520   -4.3408  -21.5936 H   0  0  0  0  0  0  0  0  0  0  0  0
  1  2  1  0
  2  3  1  0
  3  4  1  0
  4  5  1  0
  5  6  2  0
  6  7  1  0
  7  8  2  0
  8  9  1  0
  9 10  2  0
 10 11  1  0
 11 12  2  0
 12 13  1  0
 13 14  2  0
  4 15  1  0
 15 16  2  0
 15 17  1  0
 17 18  1  6
 18 19  1  0
 19 20  1  0
 20 21  1  0
 21 22  2  0
 22 23  1  0
 23 24  2  0
 23 25  1  0
 25 26  1  0
 26 27  2  0
 19 28  1  0
 28 29  2  0
 28 30  1  0
 30 31  2  0
 31 32  1  0
 32 33  2  0
 33 34  1  0
 33 35  1  0
 35 36  2  0
 17  2  1  0
 27 21  1  0
 36 30  1  0
 14  5  1  0
 36 17  1  0
 14  9  1  0
  1 37  1  0
  1 38  1  0
  1 39  1  0
  2 40  1  1
  3 41  1  0
  3 42  1  0
  6 43  1  0
  8 44  1  0
 10 45  1  0
 11 46  1  0
 12 47  1  0
 13 48  1  0
 18 49  1  0
 18 50  1  0
 20 51  1  0
 20 52  1  0
 22 53  1  0
 25 54  1  0
 26 55  1  0
 31 56  1  0
 32 57  1  0
 35 58  1  0
M  END
>  <RMSD>  (32) 
0.05567105422463027

$$$$

     RDKit          3D

 63 68  0  0  0  0  0  0  0  0999 V2000
   -7.1740   -5.0968  -22.9659 C   0  0  0  0  0  0  0  0  0  0  0  0
   -7.5399   -3.9459  -22.0267 C   0  0  1  0  0  0  0  0  0  0  0  0
   -6.3312   -3.3263  -21.3007 C   0  0  0  0  0  0  0  0  0  0  0  0
   -6.8097   -2.0005  -20.9494 N   0  0  0  0  0  0  0  0  0  0  0  0
   -6.1840   -1.1509  -20.0005 C   0  0  0  0  0  0  0  0  0  0  0  0
   -6.5589   -1.2268  -18.6837 C   0  0  0  0  0  0  0  0  0  0  0  0
   -6.0116   -0.4954  -17.6795 N   0  0  0  0  0  0  0  0  0  0  0  0
   -5.0630    0.3505  -18.0049 C   0  0  0  0  0  0  0  0  0  0  0  0
   -4.5720    0.5373  -19.3325 C   0  0  0  0  0  0  0  0  0  0  0  0
   -3.5556    1.4861  -19.6324 C   0  0  0  0  0  0  0  0  0  0  0  0
   -3.0976    1.6257  -20.9154 C   0  0  0  0  0  0  0  0  0  0  0  0
   -3.6225    0.8184  -21.9501 C   0  0  0  0  0  0  0  0  0  0  0  0
   -4.6156   -0.0963  -21.6873 C   0  0  0  0  0  0  0  0  0  0  0  0
   -5.1319   -0.2473  -20.3687 C   0  0  0  0  0  0  0  0  0  0  0  0
   -7.9443   -1.6141  -21.6306 C   0  0  0  0  0  0  0  0  0  0  0  0
   -8.5318   -0.5689  -21.4390 O   0  0  0  0  0  0  0  0  0  0  0  0
   -8.2738   -2.7251  -22.6626 C   0  0  1  0  0  0  0  0  0  0  0  0
   -7.6157   -2.3465  -24.0092 C   0  0  0  0  0  0  0  0  0  0  0  0
   -8.3827   -1.3225  -24.7144 N   0  0  0  0  0  0  0  0  0  0  0  0
   -7.6157   -0.5414  -25.6828 C   0  0  0  0  0  0  0  0  0  0  0  0
   -6.7984    0.6168  -25.0859 C   0  0  0  0  0  0  0  0  0  0  0  0
   -5.7042    0.9236  -25.5366 O   0  0  0  0  0  0  0  0  0  0  0  0
   -7.3798    1.2665  -24.0494 N   0  0  0  0  0  0  0  0  0  0  0  0
   -6.7526    2.4275  -23.4347 C   0  0  0  0  0  0  0  0  0  0  0  0
   -6.9700    3.7329  -24.1809 C   0  0  0  0  0  0  0  0  0  0  0  0
   -6.9682    5.0258  -23.4062 C   0  0  0  0  0  0  0  0  0  0  0  0
   -8.2585    4.4869  -23.9828 C   0  0  0  0  0  0  0  0  0  0  0  0
   -9.6728   -1.6988  -25.0746 C   0  0  0  0  0  0  0  0  0  0  0  0
  -10.1689   -1.4577  -26.1594 O   0  0  0  0  0  0  0  0  0  0  0  0
  -10.4303   -2.3778  -23.9691 C   0  0  0  0  0  0  0  0  0  0  0  0
  -11.8232   -2.4469  -24.0689 C   0  0  0  0  0  0  0  0  0  0  0  0
  -12.5806   -3.0076  -23.0595 C   0  0  0  0  0  0  0  0  0  0  0  0
  -11.9087   -3.5178  -21.9551 C   0  0  0  0  0  0  0  0  0  0  0  0
  -12.6284   -4.0758  -20.9689 F   0  0  0  0  0  0  0  0  0  0  0  0
  -10.5361   -3.4744  -21.8285 C   0  0  0  0  0  0  0  0  0  0  0  0
   -9.7659   -2.8898  -22.8459 C   0  0  0  0  0  0  0  0  0  0  0  0
   -8.0329   -5.3997  -23.5760 H   0  0  0  0  0  0  0  0  0  0  0  0
   -6.3695   -4.8091  -23.6547 H   0  0  0  0  0  0  0  0  0  0  0  0
   -6.8293   -5.9755  -22.4069 H   0  0  0  0  0  0  0  0  0  0  0  0
   -8.2181   -4.3363  -21.2627 H   0  0  0  0  0  0  0  0  0  0  0  0
   -5.4547   -3.2882  -21.9709 H   0  0  0  0  0  0  0  0  0  0  0  0
   -6.0285   -3.8762  -20.4031 H   0  0  0  0  0  0  0  0  0  0  0  0
   -7.3471   -1.9193  -18.3923 H   0  0  0  0  0  0  0  0  0  0  0  0
   -4.6334    0.9402  -17.1955 H   0  0  0  0  0  0  0  0  0  0  0  0
   -3.1728    2.1025  -18.8241 H   0  0  0  0  0  0  0  0  0  0  0  0
   -2.3439    2.3720  -21.1534 H   0  0  0  0  0  0  0  0  0  0  0  0
   -3.2656    0.9480  -22.9701 H   0  0  0  0  0  0  0  0  0  0  0  0
   -5.0186   -0.7065  -22.4903 H   0  0  0  0  0  0  0  0  0  0  0  0
   -6.6178   -1.9426  -23.8269 H   0  0  0  0  0  0  0  0  0  0  0  0
   -7.5138   -3.2442  -24.6439 H   0  0  0  0  0  0  0  0  0  0  0  0
   -8.3389   -0.1457  -26.4019 H   0  0  0  0  0  0  0  0  0  0  0  0
   -6.9049   -1.1568  -26.2434 H   0  0  0  0  0  0  0  0  0  0  0  0
   -8.3136    0.9961  -23.7704 H   0  0  0  0  0  0  0  0  0  0  0  0
   -5.6798    2.2209  -23.3489 H   0  0  0  0  0  0  0  0  0  0  0  0
   -7.1661    2.5236  -22.4217 H   0  0  0  0  0  0  0  0  0  0  0  0
   -6.5250    3.7499  -25.1759 H   0  0  0  0  0  0  0  0  0  0  0  0
   -6.5137    5.9114  -23.8530 H   0  0  0  0  0  0  0  0  0  0  0  0
   -6.8160    4.9841  -22.3244 H   0  0  0  0  0  0  0  0  0  0  0  0
   -9.0023    4.0681  -23.3020 H   0  0  0  0  0  0  0  0  0  0  0  0
   -8.7111    4.9880  -24.8384 H   0  0  0  0  0  0  0  0  0  0  0  0
  -12.2951   -2.0207  -24.9468 H   0  0  0  0  0  0  0  0  0  0  0  0
  -13.6664   -3.0331  -23.0862 H   0  0  0  0  0  0  0  0  0  0  0  0
  -10.0859   -3.8874  -20.9309 H   0  0  0  0  0  0  0  0  0  0  0  0
  1  2  1  0
  2  3  1  0
  3  4  1  0
  4  5  1  0
  5  6  2  0
  6  7  1  0
  7  8  2  0
  8  9  1  0
  9 10  2  0
 10 11  1  0
 11 12  2  0
 12 13  1  0
 13 14  2  0
  4 15  1  0
 15 16  2  0
 15 17  1  0
 17 18  1  6
 18 19  1  0
 19 20  1  0
 20 21  1  0
 21 22  2  0
 21 23  1  0
 23 24  1  0
 24 25  1  0
 25 26  1  0
 26 27  1  0
 19 28  1  0
 28 29  2  0
 28 30  1  0
 30 31  2  0
 31 32  1  0
 32 33  2  0
 33 34  1  0
 33 35  1  0
 35 36  2  0
 17  2  1  0
 27 25  1  0
 36 30  1  0
 14  5  1  0
 36 17  1  0
 14  9  1  0
  1 37  1  0
  1 38  1  0
  1 39  1  0
  2 40  1  1
  3 41  1  0
  3 42  1  0
  6 43  1  0
  8 44  1  0
 10 45  1  0
 11 46  1  0
 12 47  1  0
 13 48  1  0
 18 49  1  0
 18 50  1  0
 20 51  1  0
 20 52  1  0
 23 53  1  0
 24 54  1  0
 24 55  1  0
 25 56  1  0
 26 57  1  0
 26 58  1  0
 27 59  1  0
 27 60  1  0
 31 61  1  0
 32 62  1  0
 35 63  1  0
M  END
>  <RMSD>  (33) 
0.06884992490275758

$$$$

     RDKit          3D

 59 64  0  0  0  0  0  0  0  0999 V2000
   -7.2354   -5.0317  -23.0325 C   0  0  0  0  0  0  0  0  0  0  0  0
   -7.5629   -3.8718  -22.1009 C   0  0  1  0  0  0  0  0  0  0  0  0
   -6.3509   -3.2987  -21.3532 C   0  0  0  0  0  0  0  0  0  0  0  0
   -6.8143   -1.9780  -20.9712 N   0  0  0  0  0  0  0  0  0  0  0  0
   -6.1796   -1.1518  -20.0063 C   0  0  0  0  0  0  0  0  0  0  0  0
   -6.5459   -1.2423  -18.6890 C   0  0  0  0  0  0  0  0  0  0  0  0
   -6.0104   -0.5025  -17.6834 N   0  0  0  0  0  0  0  0  0  0  0  0
   -5.0720    0.3586  -18.0026 C   0  0  0  0  0  0  0  0  0  0  0  0
   -4.5719    0.5407  -19.3244 C   0  0  0  0  0  0  0  0  0  0  0  0
   -3.5556    1.4892  -19.6318 C   0  0  0  0  0  0  0  0  0  0  0  0
   -3.0992    1.6234  -20.9125 C   0  0  0  0  0  0  0  0  0  0  0  0
   -3.6249    0.8130  -21.9475 C   0  0  0  0  0  0  0  0  0  0  0  0
   -4.6256   -0.0878  -21.6851 C   0  0  0  0  0  0  0  0  0  0  0  0
   -5.1276   -0.2465  -20.3653 C   0  0  0  0  0  0  0  0  0  0  0  0
   -7.8859   -1.5330  -21.7164 C   0  0  0  0  0  0  0  0  0  0  0  0
   -8.4181   -0.4565  -21.5617 O   0  0  0  0  0  0  0  0  0  0  0  0
   -8.2386   -2.6324  -22.7515 C   0  0  1  0  0  0  0  0  0  0  0  0
   -7.5990   -2.2859  -24.1221 C   0  0  0  0  0  0  0  0  0  0  0  0
   -8.1725   -1.0934  -24.7152 N   0  0  0  0  0  0  0  0  0  0  0  0
   -7.3206   -0.2910  -25.5760 C   0  0  0  0  0  0  0  0  0  0  0  0
   -6.7412    0.8898  -24.8567 C   0  0  0  0  0  0  0  0  0  0  0  0
   -7.3443    1.7210  -23.9446 C   0  0  0  0  0  0  0  0  0  0  0  0
   -6.3695    2.6883  -23.6507 C   0  0  0  0  0  0  0  0  0  0  0  0
   -5.2468    2.4755  -24.3313 N   0  0  0  0  0  0  0  0  0  0  0  0
   -5.4915    1.3734  -25.0582 N   0  0  0  0  0  0  0  0  0  0  0  0
   -4.4639    0.7977  -25.8950 C   0  0  0  0  0  0  0  0  0  0  0  0
   -9.5112   -0.8239  -24.6568 C   0  0  0  0  0  0  0  0  0  0  0  0
  -10.0061    0.1336  -25.2344 O   0  0  0  0  0  0  0  0  0  0  0  0
  -10.3362   -1.7835  -23.8395 C   0  0  0  0  0  0  0  0  0  0  0  0
  -11.7258   -1.7243  -23.9638 C   0  0  0  0  0  0  0  0  0  0  0  0
  -12.5401   -2.5792  -23.2455 C   0  0  0  0  0  0  0  0  0  0  0  0
  -11.9249   -3.5031  -22.4041 C   0  0  0  0  0  0  0  0  0  0  0  0
  -12.6974   -4.3374  -21.6871 F   0  0  0  0  0  0  0  0  0  0  0  0
  -10.5548   -3.5880  -22.2564 C   0  0  0  0  0  0  0  0  0  0  0  0
   -9.7329   -2.7098  -22.9713 C   0  0  0  0  0  0  0  0  0  0  0  0
   -8.1103   -5.3408  -23.6137 H   0  0  0  0  0  0  0  0  0  0  0  0
   -6.8774   -5.9058  -22.4782 H   0  0  0  0  0  0  0  0  0  0  0  0
   -6.4571   -4.7545  -23.7503 H   0  0  0  0  0  0  0  0  0  0  0  0
   -8.2398   -4.2402  -21.3265 H   0  0  0  0  0  0  0  0  0  0  0  0
   -5.4651   -3.2731  -22.0127 H   0  0  0  0  0  0  0  0  0  0  0  0
   -6.0835   -3.8815  -20.4682 H   0  0  0  0  0  0  0  0  0  0  0  0
   -7.3269   -1.9386  -18.3915 H   0  0  0  0  0  0  0  0  0  0  0  0
   -4.6525    0.9625  -17.1951 H   0  0  0  0  0  0  0  0  0  0  0  0
   -3.1569    2.1105  -18.8304 H   0  0  0  0  0  0  0  0  0  0  0  0
   -2.3337    2.3580  -21.1539 H   0  0  0  0  0  0  0  0  0  0  0  0
   -3.2634    0.9368  -22.9641 H   0  0  0  0  0  0  0  0  0  0  0  0
   -5.0433   -0.7073  -22.4761 H   0  0  0  0  0  0  0  0  0  0  0  0
   -7.7324   -3.1289  -24.8151 H   0  0  0  0  0  0  0  0  0  0  0  0
   -6.5260   -2.1138  -23.9920 H   0  0  0  0  0  0  0  0  0  0  0  0
   -6.5316   -0.9397  -25.9868 H   0  0  0  0  0  0  0  0  0  0  0  0
   -7.9399    0.0588  -26.4089 H   0  0  0  0  0  0  0  0  0  0  0  0
   -8.3619    1.6425  -23.5853 H   0  0  0  0  0  0  0  0  0  0  0  0
   -6.4493    3.5263  -22.9740 H   0  0  0  0  0  0  0  0  0  0  0  0
   -3.6012    1.4575  -25.8838 H   0  0  0  0  0  0  0  0  0  0  0  0
   -4.1582   -0.1982  -25.5568 H   0  0  0  0  0  0  0  0  0  0  0  0
   -4.8149    0.7007  -26.9244 H   0  0  0  0  0  0  0  0  0  0  0  0
  -12.1566   -0.9932  -24.6384 H   0  0  0  0  0  0  0  0  0  0  0  0
  -13.6256   -2.5429  -23.3089 H   0  0  0  0  0  0  0  0  0  0  0  0
  -10.1497   -4.3412  -21.5868 H   0  0  0  0  0  0  0  0  0  0  0  0
  1  2  1  0
  2  3  1  0
  3  4  1  0
  4  5  1  0
  5  6  2  0
  6  7  1  0
  7  8  2  0
  8  9  1  0
  9 10  2  0
 10 11  1  0
 11 12  2  0
 12 13  1  0
 13 14  2  0
  4 15  1  0
 15 16  2  0
 15 17  1  0
 17 18  1  6
 18 19  1  0
 19 20  1  0
 20 21  1  0
 21 22  2  0
 22 23  1  0
 23 24  2  0
 24 25  1  0
 25 26  1  0
 19 27  1  0
 27 28  2  0
 27 29  1  0
 29 30  2  0
 30 31  1  0
 31 32  2  0
 32 33  1  0
 32 34  1  0
 34 35  2  0
 17  2  1  0
 25 21  1  0
 35 29  1  0
 14  5  1  0
 35 17  1  0
 14  9  1  0
  1 36  1  0
  1 37  1  0
  1 38  1  0
  2 39  1  1
  3 40  1  0
  3 41  1  0
  6 42  1  0
  8 43  1  0
 10 44  1  0
 11 45  1  0
 12 46  1  0
 13 47  1  0
 18 48  1  0
 18 49  1  0
 20 50  1  0
 20 51  1  0
 22 52  1  0
 23 53  1  0
 26 54  1  0
 26 55  1  0
 26 56  1  0
 30 57  1  0
 31 58  1  0
 34 59  1  0
M  END
>  <RMSD>  (34) 
0.05621736799171975

$$$$

     RDKit          3D

 49 50  0  0  0  0  0  0  0  0999 V2000
  -13.4334   -6.6024  -18.9709 C   0  0  0  0  0  0  0  0  0  0  0  0
  -13.8733   -7.9859  -19.0889 N   0  0  0  0  0  0  0  0  0  0  0  0
  -14.3847   -8.4630  -20.5698 S   0  0  0  0  0  0  0  0  0  0  0  0
  -15.5358   -7.6823  -20.9616 O   0  0  0  0  0  0  0  0  0  0  0  0
  -14.4265   -9.9049  -20.5918 O   0  0  0  0  0  0  0  0  0  0  0  0
  -13.1182   -7.9720  -21.4722 O   0  0  0  0  0  0  0  0  0  0  0  0
  -13.2625   -8.2418  -22.8843 C   0  0  0  0  0  0  0  0  0  0  0  0
  -11.9577   -7.7818  -23.5125 C   0  0  0  0  0  0  0  0  0  0  0  0
  -11.1399   -8.5582  -23.9875 O   0  0  0  0  0  0  0  0  0  0  0  0
  -11.7494   -6.4358  -23.5118 N   0  0  0  0  0  0  0  0  0  0  0  0
  -10.5969   -5.9110  -24.2368 C   0  0  1  0  0  0  0  0  0  0  0  0
  -10.8665   -5.9490  -25.7464 C   0  0  0  0  0  0  0  0  0  0  0  0
  -10.1799   -4.5358  -23.7487 C   0  0  0  0  0  0  0  0  0  0  0  0
   -8.8752   -4.3422  -23.2871 C   0  0  0  0  0  0  0  0  0  0  0  0
   -8.4621   -3.0729  -22.9014 C   0  0  0  0  0  0  0  0  0  0  0  0
   -6.8164   -2.8465  -22.3684 Cl  0  0  0  0  0  0  0  0  0  0  0  0
   -9.3277   -1.9902  -22.9392 C   0  0  0  0  0  0  0  0  0  0  0  0
  -10.6418   -2.1730  -23.3858 C   0  0  0  0  0  0  0  0  0  0  0  0
  -11.5987   -1.0393  -23.3715 C   0  0  0  0  0  0  0  0  0  0  0  0
  -11.1760    0.2707  -23.6320 C   0  0  0  0  0  0  0  0  0  0  0  0
  -12.0463    1.3431  -23.4793 C   0  0  0  0  0  0  0  0  0  0  0  0
  -13.3695    1.1023  -23.1025 C   0  0  0  0  0  0  0  0  0  0  0  0
  -14.4669    2.4753  -22.7905 S   0  0  0  0  0  0  0  0  0  0  0  0
  -15.6780    1.7994  -21.8656 N   0  0  0  0  0  0  0  0  0  0  0  0
  -13.7668    3.4135  -21.9341 O   0  0  0  0  0  0  0  0  0  0  0  0
  -15.0807    2.9099  -24.0333 O   0  0  0  0  0  0  0  0  0  0  0  0
  -13.8179   -0.1991  -22.8996 C   0  0  0  0  0  0  0  0  0  0  0  0
  -12.9365   -1.2564  -23.0271 C   0  0  0  0  0  0  0  0  0  0  0  0
  -11.0472   -3.4476  -23.7943 C   0  0  0  0  0  0  0  0  0  0  0  0
  -14.2127   -5.9422  -19.3474 H   0  0  0  0  0  0  0  0  0  0  0  0
  -13.2908   -6.3897  -17.9125 H   0  0  0  0  0  0  0  0  0  0  0  0
  -12.5014   -6.3993  -19.4990 H   0  0  0  0  0  0  0  0  0  0  0  0
  -13.2160   -8.6740  -18.7294 H   0  0  0  0  0  0  0  0  0  0  0  0
  -14.1219   -7.6748  -23.2641 H   0  0  0  0  0  0  0  0  0  0  0  0
  -13.3840   -9.3111  -23.0781 H   0  0  0  0  0  0  0  0  0  0  0  0
  -12.2808   -5.8253  -22.9088 H   0  0  0  0  0  0  0  0  0  0  0  0
   -9.7731   -6.5955  -24.0284 H   0  0  0  0  0  0  0  0  0  0  0  0
  -11.0768   -6.9815  -26.0424 H   0  0  0  0  0  0  0  0  0  0  0  0
   -9.9963   -5.5922  -26.3038 H   0  0  0  0  0  0  0  0  0  0  0  0
  -11.7363   -5.3278  -25.9921 H   0  0  0  0  0  0  0  0  0  0  0  0
   -8.1740   -5.1714  -23.2346 H   0  0  0  0  0  0  0  0  0  0  0  0
   -8.9892   -1.0271  -22.5646 H   0  0  0  0  0  0  0  0  0  0  0  0
  -10.1545    0.4502  -23.9611 H   0  0  0  0  0  0  0  0  0  0  0  0
  -11.6834    2.3602  -23.6002 H   0  0  0  0  0  0  0  0  0  0  0  0
  -16.5893    2.0133  -22.2415 H   0  0  0  0  0  0  0  0  0  0  0  0
  -15.5790    2.0624  -20.8934 H   0  0  0  0  0  0  0  0  0  0  0  0
  -14.8398   -0.3710  -22.5823 H   0  0  0  0  0  0  0  0  0  0  0  0
  -13.2860   -2.2606  -22.8041 H   0  0  0  0  0  0  0  0  0  0  0  0
  -12.0649   -3.5819  -24.1591 H   0  0  0  0  0  0  0  0  0  0  0  0
  1  2  1  0
  2  3  1  0
  3  4  2  0
  3  5  2  0
  3  6  1  0
  6  7  1  0
  7  8  1  0
  8  9  2  0
  8 10  1  0
 10 11  1  0
 11 12  1  0
 11 13  1  0
 13 14  2  0
 14 15  1  0
 15 16  1  0
 15 17  2  0
 17 18  1  0
 18 19  1  0
 19 20  2  0
 20 21  1  0
 21 22  2  0
 22 23  1  0
 23 24  1  0
 23 25  2  0
 23 26  2  0
 22 27  1  0
 27 28  2  0
 18 29  2  0
 29 13  1  0
 28 19  1  0
  1 30  1  0
  1 31  1  0
  1 32  1  0
  2 33  1  0
  7 34  1  0
  7 35  1  0
 10 36  1  0
 11 37  1  6
 12 38  1  0
 12 39  1  0
 12 40  1  0
 14 41  1  0
 17 42  1  0
 20 43  1  0
 21 44  1  0
 24 45  1  0
 24 46  1  0
 27 47  1  0
 28 48  1  0
 29 49  1  0
M  END
>  <RMSD>  (35) 
0.04655359943760532

$$$$

     RDKit          3D

 40 43  0  0  0  0  0  0  0  0999 V2000
   -5.8548    2.2920  -23.5577 C   0  0  0  0  0  0  0  0  0  0  0  0
   -5.1540    1.5425  -22.5384 N   0  0  0  0  0  0  0  0  0  0  0  0
   -4.0148    2.0520  -22.0272 N   0  0  0  0  0  0  0  0  0  0  0  0
   -3.6243    1.2334  -21.0788 C   0  0  0  0  0  0  0  0  0  0  0  0
   -4.5243    0.1353  -20.9416 C   0  0  0  0  0  0  0  0  0  0  0  0
   -4.6584   -1.0104  -20.1211 C   0  0  0  0  0  0  0  0  0  0  0  0
   -5.6792   -1.8434  -20.2580 N   0  0  0  0  0  0  0  0  0  0  0  0
   -6.6042   -1.5808  -21.2096 C   0  0  0  0  0  0  0  0  0  0  0  0
   -6.5815   -0.5064  -22.0808 C   0  0  0  0  0  0  0  0  0  0  0  0
   -7.5782   -0.3269  -23.0699 N   0  0  0  0  0  0  0  0  0  0  0  0
   -8.8225    0.1621  -22.7613 C   0  0  0  0  0  0  0  0  0  0  0  0
   -9.1657    0.3700  -21.6117 O   0  0  0  0  0  0  0  0  0  0  0  0
   -9.6942    0.4674  -23.9802 C   0  0  2  0  0  0  0  0  0  0  0  0
   -9.4020    1.9038  -24.4595 C   0  0  0  0  0  0  0  0  0  0  0  0
   -9.8676    2.9026  -23.4971 N   0  0  0  0  0  0  0  0  0  0  0  0
  -11.5156    3.0163  -23.4615 S   0  0  0  0  0  0  0  0  0  0  0  0
  -11.9366    3.5971  -24.7222 O   0  0  0  0  0  0  0  0  0  0  0  0
  -11.8738    3.6173  -22.1883 O   0  0  0  0  0  0  0  0  0  0  0  0
  -12.0348    1.3195  -23.4214 C   0  0  0  0  0  0  0  0  0  0  0  0
  -13.3759    1.1117  -23.1043 C   0  0  0  0  0  0  0  0  0  0  0  0
  -13.8409   -0.1763  -22.8858 C   0  0  0  0  0  0  0  0  0  0  0  0
  -12.9476   -1.2363  -23.0140 C   0  0  0  0  0  0  0  0  0  0  0  0
  -13.4902   -2.8495  -22.6676 Cl  0  0  0  0  0  0  0  0  0  0  0  0
  -11.6227   -1.0331  -23.3797 C   0  0  0  0  0  0  0  0  0  0  0  0
  -11.1527    0.2571  -23.6256 C   0  0  0  0  0  0  0  0  0  0  0  0
   -5.5035    0.3810  -21.9196 C   0  0  0  0  0  0  0  0  0  0  0  0
   -6.7783    2.7260  -23.1563 H   0  0  0  0  0  0  0  0  0  0  0  0
   -6.0913    1.6342  -24.3978 H   0  0  0  0  0  0  0  0  0  0  0  0
   -5.1823    3.0883  -23.8789 H   0  0  0  0  0  0  0  0  0  0  0  0
   -2.7240    1.4357  -20.5132 H   0  0  0  0  0  0  0  0  0  0  0  0
   -3.9229   -1.2368  -19.3519 H   0  0  0  0  0  0  0  0  0  0  0  0
   -7.4220   -2.2906  -21.2875 H   0  0  0  0  0  0  0  0  0  0  0  0
   -7.3149   -0.4628  -24.0323 H   0  0  0  0  0  0  0  0  0  0  0  0
   -9.3971   -0.2286  -24.7745 H   0  0  0  0  0  0  0  0  0  0  0  0
   -9.8808    2.1010  -25.4254 H   0  0  0  0  0  0  0  0  0  0  0  0
   -8.3325    2.0671  -24.5929 H   0  0  0  0  0  0  0  0  0  0  0  0
   -9.5377    2.7768  -22.5406 H   0  0  0  0  0  0  0  0  0  0  0  0
  -14.0354    1.9717  -23.0195 H   0  0  0  0  0  0  0  0  0  0  0  0
  -14.8700   -0.3584  -22.5974 H   0  0  0  0  0  0  0  0  0  0  0  0
  -10.9383   -1.8719  -23.4483 H   0  0  0  0  0  0  0  0  0  0  0  0
  1  2  1  0
  2  3  1  0
  3  4  2  0
  4  5  1  0
  5  6  2  0
  6  7  1  0
  7  8  2  0
  8  9  1  0
  9 10  1  0
 10 11  1  0
 11 12  2  0
 11 13  1  0
 13 14  1  0
 14 15  1  0
 15 16  1  0
 16 17  2  0
 16 18  2  0
 16 19  1  0
 19 20  2  0
 20 21  1  0
 21 22  2  0
 22 23  1  0
 22 24  1  0
 24 25  2  0
  9 26  2  0
 26  2  1  0
 26  5  1  0
 25 13  1  0
 25 19  1  0
  1 27  1  0
  1 28  1  0
  1 29  1  0
  4 30  1  0
  6 31  1  0
  8 32  1  0
 10 33  1  0
 13 34  1  6
 14 35  1  0
 14 36  1  0
 15 37  1  0
 20 38  1  0
 21 39  1  0
 24 40  1  0
M  END
>  <RMSD>  (36) 
0.03637355467504754

$$$$

     RDKit          3D

 68 73  0  0  0  0  0  0  0  0999 V2000
   -6.7629    2.6529  -23.2139 C   0  0  0  0  0  0  0  0  0  0  0  0
   -7.3229    1.4775  -23.8543 N   0  0  0  0  0  0  0  0  0  0  0  0
   -6.8398    1.0553  -25.0417 C   0  0  0  0  0  0  0  0  0  0  0  0
   -6.0179    1.6880  -25.6944 O   0  0  0  0  0  0  0  0  0  0  0  0
   -7.3434   -0.2957  -25.5740 C   0  0  0  0  0  0  0  0  0  0  0  0
   -8.1592   -1.0976  -24.6869 N   0  0  0  0  0  0  0  0  0  0  0  0
   -7.5871   -2.3015  -24.1132 C   0  0  0  0  0  0  0  0  0  0  0  0
   -8.2325   -2.6385  -22.7459 C   0  0  2  0  0  0  0  0  0  0  0  0
   -7.8700   -1.5359  -21.7130 C   0  0  0  0  0  0  0  0  0  0  0  0
   -8.3961   -0.4484  -21.5708 O   0  0  0  0  0  0  0  0  0  0  0  0
   -6.8012   -1.9870  -20.9661 N   0  0  0  0  0  0  0  0  0  0  0  0
   -6.1748   -1.1552  -19.9992 C   0  0  0  0  0  0  0  0  0  0  0  0
   -6.5494   -1.2371  -18.6838 C   0  0  0  0  0  0  0  0  0  0  0  0
   -6.0128   -0.4954  -17.6791 N   0  0  0  0  0  0  0  0  0  0  0  0
   -5.0715    0.3593  -18.0041 C   0  0  0  0  0  0  0  0  0  0  0  0
   -4.5755    0.5445  -19.3287 C   0  0  0  0  0  0  0  0  0  0  0  0
   -3.5535    1.4846  -19.6335 C   0  0  0  0  0  0  0  0  0  0  0  0
   -3.0929    1.6176  -20.9152 C   0  0  0  0  0  0  0  0  0  0  0  0
   -3.6262    0.8171  -21.9522 C   0  0  0  0  0  0  0  0  0  0  0  0
   -4.6231   -0.0884  -21.6838 C   0  0  0  0  0  0  0  0  0  0  0  0
   -5.1347   -0.2414  -20.3650 C   0  0  0  0  0  0  0  0  0  0  0  0
   -6.3414   -3.3156  -21.3325 C   0  0  0  0  0  0  0  0  0  0  0  0
   -7.5649   -3.8772  -22.0774 C   0  0  2  0  0  0  0  0  0  0  0  0
   -7.2579   -5.0656  -23.0099 C   0  0  0  0  0  0  0  0  0  0  0  0
   -6.8688   -6.2899  -22.3485 N   0  0  0  0  0  0  0  0  0  0  0  0
   -5.5567   -6.5369  -21.9732 C   0  0  0  0  0  0  0  0  0  0  0  0
   -5.1052   -7.5562  -21.0885 C   0  0  0  0  0  0  0  0  0  0  0  0
   -3.7804   -7.5662  -20.9955 N   0  0  0  0  0  0  0  0  0  0  0  0
   -3.3578   -6.5919  -21.8013 N   0  0  0  0  0  0  0  0  0  0  0  0
   -1.9502   -6.2832  -21.9159 C   0  0  0  0  0  0  0  0  0  0  0  0
   -4.3880   -5.9396  -22.4105 C   0  0  0  0  0  0  0  0  0  0  0  0
   -9.7306   -2.7104  -22.9603 C   0  0  0  0  0  0  0  0  0  0  0  0
  -10.5574   -3.5861  -22.2462 C   0  0  0  0  0  0  0  0  0  0  0  0
  -11.9325   -3.5082  -22.3797 C   0  0  0  0  0  0  0  0  0  0  0  0
  -12.9410   -4.5725  -21.4359 Cl  0  0  0  0  0  0  0  0  0  0  0  0
  -12.5324   -2.5832  -23.2356 C   0  0  0  0  0  0  0  0  0  0  0  0
  -11.7196   -1.7344  -23.9636 C   0  0  0  0  0  0  0  0  0  0  0  0
  -10.3333   -1.7972  -23.8389 C   0  0  0  0  0  0  0  0  0  0  0  0
   -9.5047   -0.8509  -24.6602 C   0  0  0  0  0  0  0  0  0  0  0  0
   -9.9850    0.1068  -25.2558 O   0  0  0  0  0  0  0  0  0  0  0  0
   -5.6964    2.5042  -22.9966 H   0  0  0  0  0  0  0  0  0  0  0  0
   -6.8644    3.5421  -23.8471 H   0  0  0  0  0  0  0  0  0  0  0  0
   -7.2987    2.8056  -22.2726 H   0  0  0  0  0  0  0  0  0  0  0  0
   -8.0648    0.9768  -23.3846 H   0  0  0  0  0  0  0  0  0  0  0  0
   -6.4422   -0.8577  -25.8354 H   0  0  0  0  0  0  0  0  0  0  0  0
   -7.8923   -0.0956  -26.5008 H   0  0  0  0  0  0  0  0  0  0  0  0
   -6.5126   -2.1276  -23.9834 H   0  0  0  0  0  0  0  0  0  0  0  0
   -7.7253   -3.1492  -24.7999 H   0  0  0  0  0  0  0  0  0  0  0  0
   -7.3290   -1.9382  -18.3913 H   0  0  0  0  0  0  0  0  0  0  0  0
   -4.6579    0.9596  -17.1932 H   0  0  0  0  0  0  0  0  0  0  0  0
   -3.1639    2.0984  -18.8243 H   0  0  0  0  0  0  0  0  0  0  0  0
   -2.3277    2.3521  -21.1539 H   0  0  0  0  0  0  0  0  0  0  0  0
   -3.2743    0.9458  -22.9742 H   0  0  0  0  0  0  0  0  0  0  0  0
   -5.0351   -0.6986  -22.4828 H   0  0  0  0  0  0  0  0  0  0  0  0
   -5.4505   -3.2773  -21.9833 H   0  0  0  0  0  0  0  0  0  0  0  0
   -6.0591   -3.8942  -20.4480 H   0  0  0  0  0  0  0  0  0  0  0  0
   -8.2664   -4.2025  -21.3013 H   0  0  0  0  0  0  0  0  0  0  0  0
   -8.1542   -5.2800  -23.6051 H   0  0  0  0  0  0  0  0  0  0  0  0
   -6.4457   -4.7871  -23.7009 H   0  0  0  0  0  0  0  0  0  0  0  0
   -7.5753   -6.7669  -21.8035 H   0  0  0  0  0  0  0  0  0  0  0  0
   -5.6713   -8.2897  -20.5145 H   0  0  0  0  0  0  0  0  0  0  0  0
   -1.7498   -5.9804  -22.9478 H   0  0  0  0  0  0  0  0  0  0  0  0
   -1.3818   -7.1803  -21.6647 H   0  0  0  0  0  0  0  0  0  0  0  0
   -1.6649   -5.4765  -21.2311 H   0  0  0  0  0  0  0  0  0  0  0  0
   -4.1937   -5.1133  -23.0872 H   0  0  0  0  0  0  0  0  0  0  0  0
  -10.1362   -4.3318  -21.5828 H   0  0  0  0  0  0  0  0  0  0  0  0
  -13.6129   -2.5340  -23.3166 H   0  0  0  0  0  0  0  0  0  0  0  0
  -12.1251   -0.9925  -24.6422 H   0  0  0  0  0  0  0  0  0  0  0  0
  1  2  1  0
  2  3  1  0
  3  4  2  0
  3  5  1  0
  5  6  1  0
  6  7  1  0
  8  7  1  6
  8  9  1  0
  9 10  2  0
  9 11  1  0
 11 12  1  0
 12 13  2  0
 13 14  1  0
 14 15  2  0
 15 16  1  0
 16 17  2  0
 17 18  1  0
 18 19  2  0
 19 20  1  0
 20 21  2  0
 11 22  1  0
 22 23  1  0
 23 24  1  0
 24 25  1  0
 25 26  1  0
 26 27  1  0
 27 28  2  0
 28 29  1  0
 29 30  1  0
 29 31  1  0
  8 32  1  0
 32 33  2  0
 33 34  1  0
 34 35  1  0
 34 36  2  0
 36 37  1  0
 37 38  2  0
 38 39  1  0
 39 40  2  0
 39  6  1  0
 23  8  1  0
 31 26  2  0
 38 32  1  0
 21 12  1  0
 21 16  1  0
  1 41  1  0
  1 42  1  0
  1 43  1  0
  2 44  1  0
  5 45  1  0
  5 46  1  0
  7 47  1  0
  7 48  1  0
 13 49  1  0
 15 50  1  0
 17 51  1  0
 18 52  1  0
 19 53  1  0
 20 54  1  0
 22 55  1  0
 22 56  1  0
 23 57  1  1
 24 58  1  0
 24 59  1  0
 25 60  1  0
 27 61  1  0
 30 62  1  0
 30 63  1  0
 30 64  1  0
 31 65  1  0
 33 66  1  0
 36 67  1  0
 37 68  1  0
M  END
>  <RMSD>  (37) 
0.05934391251637603

$$$$

     RDKit          3D

 76 82  0  0  0  0  0  0  0  0999 V2000
  -10.1739   -0.6431  -25.8293 O   0  0  0  0  0  0  0  0  0  0  0  0
   -9.6487   -1.1942  -24.8767 C   0  0  0  0  0  0  0  0  0  0  0  0
  -10.4047   -2.1017  -23.9430 C   0  0  0  0  0  0  0  0  0  0  0  0
  -11.7871   -2.1791  -24.1034 C   0  0  0  0  0  0  0  0  0  0  0  0
  -12.5683   -2.8206  -23.1602 C   0  0  0  0  0  0  0  0  0  0  0  0
  -11.9380   -3.4055  -22.0612 C   0  0  0  0  0  0  0  0  0  0  0  0
  -12.9080   -4.1719  -20.8304 Cl  0  0  0  0  0  0  0  0  0  0  0  0
  -10.5649   -3.3632  -21.9005 C   0  0  0  0  0  0  0  0  0  0  0  0
   -9.7641   -2.7342  -22.8640 C   0  0  0  0  0  0  0  0  0  0  0  0
   -8.2729   -2.6348  -22.6431 C   0  0  1  0  0  0  0  0  0  0  0  0
   -7.6174   -2.1449  -23.9556 C   0  0  0  0  0  0  0  0  0  0  0  0
   -8.3393   -1.0133  -24.5083 N   0  0  0  0  0  0  0  0  0  0  0  0
   -7.6679    0.2327  -24.8253 C   0  0  0  0  0  0  0  0  0  0  0  0
   -7.6537    1.2342  -23.6574 C   0  0  0  0  0  0  0  0  0  0  0  0
   -7.0295    2.5476  -24.0755 N   0  0  0  0  0  0  0  0  0  0  0  0
   -7.9519    3.4847  -24.8335 C   0  0  0  0  0  0  0  0  0  0  0  0
   -8.9009    4.2270  -23.8991 C   0  0  0  0  0  0  0  0  0  0  0  0
   -8.1931    4.9731  -22.9301 O   0  0  0  0  0  0  0  0  0  0  0  0
   -7.3410    4.1583  -22.1501 C   0  0  0  0  0  0  0  0  0  0  0  0
   -6.3500    3.3577  -22.9933 C   0  0  0  0  0  0  0  0  0  0  0  0
   -7.9639   -1.6090  -21.5306 C   0  0  0  0  0  0  0  0  0  0  0  0
   -8.6072   -0.6295  -21.2065 O   0  0  0  0  0  0  0  0  0  0  0  0
   -6.7858   -1.9937  -20.9382 N   0  0  0  0  0  0  0  0  0  0  0  0
   -6.1542   -1.1694  -19.9818 C   0  0  0  0  0  0  0  0  0  0  0  0
   -6.5511   -1.2367  -18.6718 C   0  0  0  0  0  0  0  0  0  0  0  0
   -6.0260   -0.4844  -17.6730 N   0  0  0  0  0  0  0  0  0  0  0  0
   -5.0804    0.3621  -18.0080 C   0  0  0  0  0  0  0  0  0  0  0  0
   -4.5865    0.5408  -19.3336 C   0  0  0  0  0  0  0  0  0  0  0  0
   -3.5663    1.4782  -19.6376 C   0  0  0  0  0  0  0  0  0  0  0  0
   -3.1025    1.6184  -20.9156 C   0  0  0  0  0  0  0  0  0  0  0  0
   -3.6335    0.8298  -21.9583 C   0  0  0  0  0  0  0  0  0  0  0  0
   -4.6306   -0.0784  -21.6921 C   0  0  0  0  0  0  0  0  0  0  0  0
   -5.1318   -0.2509  -20.3695 C   0  0  0  0  0  0  0  0  0  0  0  0
   -6.3305   -3.3134  -21.3225 C   0  0  0  0  0  0  0  0  0  0  0  0
   -7.5718   -3.8916  -22.0269 C   0  0  2  0  0  0  0  0  0  0  0  0
   -7.2810   -5.0995  -22.9316 C   0  0  0  0  0  0  0  0  0  0  0  0
   -6.8490   -6.2718  -22.1918 N   0  0  0  0  0  0  0  0  0  0  0  0
   -5.5569   -6.5620  -21.8946 C   0  0  0  0  0  0  0  0  0  0  0  0
   -4.5844   -5.7967  -22.4163 N   0  0  0  0  0  0  0  0  0  0  0  0
   -3.3367   -6.1231  -22.0750 C   0  0  0  0  0  0  0  0  0  0  0  0
   -3.0410   -7.1849  -21.2332 C   0  0  0  0  0  0  0  0  0  0  0  0
   -4.1321   -7.9108  -20.7637 C   0  0  0  0  0  0  0  0  0  0  0  0
   -5.3837   -7.6266  -21.0813 N   0  0  0  0  0  0  0  0  0  0  0  0
  -12.2245   -1.6978  -24.9720 H   0  0  0  0  0  0  0  0  0  0  0  0
  -13.6499   -2.8543  -23.2472 H   0  0  0  0  0  0  0  0  0  0  0  0
  -10.1376   -3.8071  -21.0069 H   0  0  0  0  0  0  0  0  0  0  0  0
   -6.5720   -1.8590  -23.7993 H   0  0  0  0  0  0  0  0  0  0  0  0
   -7.6463   -2.9691  -24.6794 H   0  0  0  0  0  0  0  0  0  0  0  0
   -6.6403    0.0018  -25.1279 H   0  0  0  0  0  0  0  0  0  0  0  0
   -8.1894    0.6434  -25.6931 H   0  0  0  0  0  0  0  0  0  0  0  0
   -7.0680    0.8245  -22.8306 H   0  0  0  0  0  0  0  0  0  0  0  0
   -8.6648    1.4081  -23.2886 H   0  0  0  0  0  0  0  0  0  0  0  0
   -6.2765    2.2762  -24.7248 H   0  0  0  0  0  0  0  0  0  0  0  0
   -7.3214    4.2181  -25.3443 H   0  0  0  0  0  0  0  0  0  0  0  0
   -8.5126    2.9247  -25.5841 H   0  0  0  0  0  0  0  0  0  0  0  0
   -9.6089    3.5302  -23.4213 H   0  0  0  0  0  0  0  0  0  0  0  0
   -9.4840    4.9538  -24.4695 H   0  0  0  0  0  0  0  0  0  0  0  0
   -6.7959    4.8362  -21.4859 H   0  0  0  0  0  0  0  0  0  0  0  0
   -7.9315    3.4806  -21.5164 H   0  0  0  0  0  0  0  0  0  0  0  0
   -5.7768    2.6787  -22.3539 H   0  0  0  0  0  0  0  0  0  0  0  0
   -5.6578    4.0397  -23.4986 H   0  0  0  0  0  0  0  0  0  0  0  0
   -7.3431   -1.9299  -18.3926 H   0  0  0  0  0  0  0  0  0  0  0  0
   -4.6379    0.9587  -17.2100 H   0  0  0  0  0  0  0  0  0  0  0  0
   -3.1661    2.0776  -18.8267 H   0  0  0  0  0  0  0  0  0  0  0  0
   -2.3246    2.3405  -21.1422 H   0  0  0  0  0  0  0  0  0  0  0  0
   -3.2626    0.9552  -22.9716 H   0  0  0  0  0  0  0  0  0  0  0  0
   -5.0207   -0.6801  -22.5075 H   0  0  0  0  0  0  0  0  0  0  0  0
   -6.0142   -3.8816  -20.4419 H   0  0  0  0  0  0  0  0  0  0  0  0
   -5.4696   -3.2493  -22.0048 H   0  0  0  0  0  0  0  0  0  0  0  0
   -8.2485   -4.2414  -21.2415 H   0  0  0  0  0  0  0  0  0  0  0  0
   -6.4753   -4.8486  -23.6235 H   0  0  0  0  0  0  0  0  0  0  0  0
   -8.1697   -5.3673  -23.5188 H   0  0  0  0  0  0  0  0  0  0  0  0
   -7.5251   -6.8881  -21.7704 H   0  0  0  0  0  0  0  0  0  0  0  0
   -2.5437   -5.5039  -22.4984 H   0  0  0  0  0  0  0  0  0  0  0  0
   -2.0294   -7.4496  -20.9591 H   0  0  0  0  0  0  0  0  0  0  0  0
   -4.0221   -8.7653  -20.0970 H   0  0  0  0  0  0  0  0  0  0  0  0
  1  2  2  0
  2  3  1  0
  3  4  2  0
  4  5  1  0
  5  6  2  0
  6  7  1  0
  6  8  1  0
  8  9  2  0
  9 10  1  0
 10 11  1  6
 11 12  1  0
 12 13  1  0
 13 14  1  0
 14 15  1  0
 15 16  1  0
 16 17  1  0
 17 18  1  0
 18 19  1  0
 19 20  1  0
 10 21  1  0
 21 22  2  0
 21 23  1  0
 23 24  1  0
 24 25  2  0
 25 26  1  0
 26 27  2  0
 27 28  1  0
 28 29  2  0
 29 30  1  0
 30 31  2  0
 31 32  1  0
 32 33  2  0
 23 34  1  0
 34 35  1  0
 35 36  1  0
 36 37  1  0
 37 38  1  0
 38 39  2  0
 39 40  1  0
 40 41  2  0
 41 42  1  0
 42 43  2  0
 12  2  1  0
 20 15  1  0
 33 24  1  0
 43 38  1  0
  9  3  1  0
 35 10  1  0
 33 28  1  0
  4 44  1  0
  5 45  1  0
  8 46  1  0
 11 47  1  0
 11 48  1  0
 13 49  1  0
 13 50  1  0
 14 51  1  0
 14 52  1  0
 15 53  1  0
 16 54  1  0
 16 55  1  0
 17 56  1  0
 17 57  1  0
 19 58  1  0
 19 59  1  0
 20 60  1  0
 20 61  1  0
 25 62  1  0
 27 63  1  0
 29 64  1  0
 30 65  1  0
 31 66  1  0
 32 67  1  0
 34 68  1  0
 34 69  1  0
 35 70  1  1
 36 71  1  0
 36 72  1  0
 37 73  1  0
 40 74  1  0
 41 75  1  0
 42 76  1  0
M  CHG  1  15   1
M  END
>  <RMSD>  (38) 
0.0651664243558384

$$$$

     RDKit          3D

 50 54  0  0  0  0  0  0  0  0999 V2000
   -7.3239   -5.0568  -22.9692 C   0  0  0  0  0  0  0  0  0  0  0  0
   -7.5986   -3.8791  -22.0344 C   0  0  1  0  0  0  0  0  0  0  0  0
   -6.3449   -3.3213  -21.3350 C   0  0  0  0  0  0  0  0  0  0  0  0
   -6.7813   -1.9944  -20.9451 N   0  0  0  0  0  0  0  0  0  0  0  0
   -6.1504   -1.1732  -19.9852 C   0  0  0  0  0  0  0  0  0  0  0  0
   -6.5499   -1.2360  -18.6740 C   0  0  0  0  0  0  0  0  0  0  0  0
   -6.0253   -0.4818  -17.6758 N   0  0  0  0  0  0  0  0  0  0  0  0
   -5.0787    0.3645  -18.0090 C   0  0  0  0  0  0  0  0  0  0  0  0
   -4.5815    0.5370  -19.3332 C   0  0  0  0  0  0  0  0  0  0  0  0
   -3.5627    1.4754  -19.6354 C   0  0  0  0  0  0  0  0  0  0  0  0
   -3.1015    1.6181  -20.9143 C   0  0  0  0  0  0  0  0  0  0  0  0
   -3.6385    0.8324  -21.9573 C   0  0  0  0  0  0  0  0  0  0  0  0
   -4.6320   -0.0785  -21.6947 C   0  0  0  0  0  0  0  0  0  0  0  0
   -5.1265   -0.2501  -20.3697 C   0  0  0  0  0  0  0  0  0  0  0  0
   -7.9667   -1.6016  -21.5273 C   0  0  0  0  0  0  0  0  0  0  0  0
   -8.5977   -0.6271  -21.1814 O   0  0  0  0  0  0  0  0  0  0  0  0
   -8.2888   -2.6223  -22.6421 C   0  0  1  0  0  0  0  0  0  0  0  0
   -7.6294   -2.1858  -23.9653 C   0  0  0  0  0  0  0  0  0  0  0  0
   -8.3506   -1.0761  -24.5511 N   0  0  0  0  0  0  0  0  0  0  0  0
   -7.7020    0.1794  -24.8133 C   0  0  0  0  0  0  0  0  0  0  0  0
   -7.6761    1.1559  -23.6983 C   0  0  0  0  0  0  0  0  0  0  0  0
   -7.5748    1.9864  -22.8993 N   0  0  0  0  0  0  0  0  0  0  0  0
   -9.6715   -1.2350  -24.9027 C   0  0  0  0  0  0  0  0  0  0  0  0
  -10.1875   -0.6647  -25.8476 O   0  0  0  0  0  0  0  0  0  0  0  0
  -10.4198   -2.1203  -23.9536 C   0  0  0  0  0  0  0  0  0  0  0  0
  -11.8043   -2.1866  -24.1089 C   0  0  0  0  0  0  0  0  0  0  0  0
  -12.5848   -2.8224  -23.1603 C   0  0  0  0  0  0  0  0  0  0  0  0
  -11.9437   -3.3991  -22.0670 C   0  0  0  0  0  0  0  0  0  0  0  0
  -12.6914   -3.9901  -21.1169 F   0  0  0  0  0  0  0  0  0  0  0  0
  -10.5741   -3.3627  -21.8983 C   0  0  0  0  0  0  0  0  0  0  0  0
   -9.7776   -2.7321  -22.8635 C   0  0  0  0  0  0  0  0  0  0  0  0
   -6.9518   -5.9275  -22.4102 H   0  0  0  0  0  0  0  0  0  0  0  0
   -6.5622   -4.8107  -23.7221 H   0  0  0  0  0  0  0  0  0  0  0  0
   -8.2311   -5.3660  -23.5049 H   0  0  0  0  0  0  0  0  0  0  0  0
   -8.2752   -4.2257  -21.2443 H   0  0  0  0  0  0  0  0  0  0  0  0
   -5.4863   -3.2802  -22.0279 H   0  0  0  0  0  0  0  0  0  0  0  0
   -6.0334   -3.8995  -20.4553 H   0  0  0  0  0  0  0  0  0  0  0  0
   -7.3435   -1.9260  -18.3906 H   0  0  0  0  0  0  0  0  0  0  0  0
   -4.6415    0.9639  -17.2108 H   0  0  0  0  0  0  0  0  0  0  0  0
   -3.1674    2.0747  -18.8222 H   0  0  0  0  0  0  0  0  0  0  0  0
   -2.3252    2.3430  -21.1404 H   0  0  0  0  0  0  0  0  0  0  0  0
   -3.2651    0.9532  -22.9696 H   0  0  0  0  0  0  0  0  0  0  0  0
   -5.0326   -0.6843  -22.5029 H   0  0  0  0  0  0  0  0  0  0  0  0
   -7.6375   -3.0293  -24.6671 H   0  0  0  0  0  0  0  0  0  0  0  0
   -6.5940   -1.8750  -23.8002 H   0  0  0  0  0  0  0  0  0  0  0  0
   -6.6703   -0.0217  -25.1028 H   0  0  0  0  0  0  0  0  0  0  0  0
   -8.2292    0.6160  -25.6627 H   0  0  0  0  0  0  0  0  0  0  0  0
  -12.2373   -1.7012  -24.9798 H   0  0  0  0  0  0  0  0  0  0  0  0
  -13.6684   -2.8652  -23.2246 H   0  0  0  0  0  0  0  0  0  0  0  0
  -10.1483   -3.8183  -21.0104 H   0  0  0  0  0  0  0  0  0  0  0  0
  1  2  1  0
  2  3  1  0
  3  4  1  0
  4  5  1  0
  5  6  2  0
  6  7  1  0
  7  8  2  0
  8  9  1  0
  9 10  2  0
 10 11  1  0
 11 12  2  0
 12 13  1  0
 13 14  2  0
  4 15  1  0
 15 16  2  0
 15 17  1  0
 17 18  1  6
 18 19  1  0
 19 20  1  0
 20 21  1  0
 21 22  3  0
 19 23  1  0
 23 24  2  0
 23 25  1  0
 25 26  2  0
 26 27  1  0
 27 28  2  0
 28 29  1  0
 28 30  1  0
 30 31  2  0
 17  2  1  0
 31 25  1  0
 14  5  1  0
 31 17  1  0
 14  9  1  0
  1 32  1  0
  1 33  1  0
  1 34  1  0
  2 35  1  1
  3 36  1  0
  3 37  1  0
  6 38  1  0
  8 39  1  0
 10 40  1  0
 11 41  1  0
 12 42  1  0
 13 43  1  0
 18 44  1  0
 18 45  1  0
 20 46  1  0
 20 47  1  0
 26 48  1  0
 27 49  1  0
 30 50  1  0
M  END
>  <RMSD>  (39) 
0.06555888614720871

$$$$

     RDKit          3D

 70 75  0  0  0  0  0  0  0  0999 V2000
   -6.4975    2.1213  -25.9009 O   0  0  0  0  0  0  0  0  0  0  0  0
   -6.7892    1.3382  -25.0176 C   0  0  0  0  0  0  0  0  0  0  0  0
   -7.4888    0.0205  -25.3634 C   0  0  0  0  0  0  0  0  0  0  0  0
   -8.3406   -0.6030  -24.3198 N   0  0  1  0  0  0  0  0  0  0  0  0
   -9.8067   -0.5397  -24.6377 C   0  0  0  0  0  0  0  0  0  0  0  0
  -10.6384   -1.2830  -23.6147 C   0  0  0  0  0  0  0  0  0  0  0  0
  -12.0191   -1.0952  -23.6250 C   0  0  0  0  0  0  0  0  0  0  0  0
  -12.8573   -1.8605  -22.8261 C   0  0  0  0  0  0  0  0  0  0  0  0
  -12.2877   -2.8310  -22.0077 C   0  0  0  0  0  0  0  0  0  0  0  0
  -13.3273   -3.8377  -21.0362 Cl  0  0  0  0  0  0  0  0  0  0  0  0
  -10.9107   -3.0105  -21.9535 C   0  0  0  0  0  0  0  0  0  0  0  0
  -10.0727   -2.2203  -22.7451 C   0  0  0  0  0  0  0  0  0  0  0  0
   -8.5655   -2.3788  -22.6787 C   0  0  2  0  0  0  0  0  0  0  0  0
   -7.8733   -1.4221  -21.6979 C   0  0  0  0  0  0  0  0  0  0  0  0
   -8.1209   -0.2190  -21.6659 O   0  0  0  0  0  0  0  0  0  0  0  0
   -6.8445   -1.9438  -20.9734 N   0  0  0  0  0  0  0  0  0  0  0  0
   -6.1624   -1.1645  -19.9933 C   0  0  0  0  0  0  0  0  0  0  0  0
   -6.5480   -1.2342  -18.6819 C   0  0  0  0  0  0  0  0  0  0  0  0
   -5.9983   -0.5106  -17.6765 N   0  0  0  0  0  0  0  0  0  0  0  0
   -5.0474    0.3353  -17.9973 C   0  0  0  0  0  0  0  0  0  0  0  0
   -4.5636    0.5270  -19.3235 C   0  0  0  0  0  0  0  0  0  0  0  0
   -3.5674    1.4908  -19.6373 C   0  0  0  0  0  0  0  0  0  0  0  0
   -3.1291    1.6483  -20.9257 C   0  0  0  0  0  0  0  0  0  0  0  0
   -3.6283    0.8099  -21.9504 C   0  0  0  0  0  0  0  0  0  0  0  0
   -4.5783   -0.1436  -21.6627 C   0  0  0  0  0  0  0  0  0  0  0  0
   -5.1096   -0.2727  -20.3526 C   0  0  0  0  0  0  0  0  0  0  0  0
   -7.9578   -2.0315  -24.0353 C   0  0  0  0  0  0  0  0  0  0  0  0
   -6.4949    1.5316  -23.6984 N   0  0  0  0  0  0  0  0  0  0  0  0
   -6.1276    2.7755  -23.1551 C   0  0  0  0  0  0  0  0  0  0  0  0
   -6.8047    3.1680  -22.0062 C   0  0  0  0  0  0  0  0  0  0  0  0
   -6.5501    4.4041  -21.4394 C   0  0  0  0  0  0  0  0  0  0  0  0
   -5.5188    5.1958  -21.9417 C   0  0  0  0  0  0  0  0  0  0  0  0
   -5.1564    6.4155  -21.3230 N   0  0  0  0  0  0  0  0  0  0  0  0
   -6.1845    7.1620  -20.6093 C   0  0  0  0  0  0  0  0  0  0  0  0
   -5.7291    8.5850  -20.3276 C   0  0  0  0  0  0  0  0  0  0  0  0
   -4.4132    8.6180  -19.8232 O   0  0  0  0  0  0  0  0  0  0  0  0
   -3.4992    8.1018  -20.7561 C   0  0  0  0  0  0  0  0  0  0  0  0
   -3.8075    6.6621  -21.1237 C   0  0  0  0  0  0  0  0  0  0  0  0
   -2.9344    5.8369  -21.3020 O   0  0  0  0  0  0  0  0  0  0  0  0
   -4.8127    4.7770  -23.0659 C   0  0  0  0  0  0  0  0  0  0  0  0
   -5.1363    3.5880  -23.6924 C   0  0  0  0  0  0  0  0  0  0  0  0
   -6.7056   -0.6941  -25.6347 H   0  0  0  0  0  0  0  0  0  0  0  0
   -8.0742    0.2030  -26.2668 H   0  0  0  0  0  0  0  0  0  0  0  0
   -8.2770   -0.0943  -23.4120 H   0  0  0  0  0  0  0  0  0  0  0  0
   -9.9813   -0.9798  -25.6316 H   0  0  0  0  0  0  0  0  0  0  0  0
  -10.1364    0.5052  -24.6951 H   0  0  0  0  0  0  0  0  0  0  0  0
  -12.4441   -0.3520  -24.2959 H   0  0  0  0  0  0  0  0  0  0  0  0
  -13.9358   -1.7300  -22.8556 H   0  0  0  0  0  0  0  0  0  0  0  0
  -10.4977   -3.7915  -21.3193 H   0  0  0  0  0  0  0  0  0  0  0  0
   -8.3073   -3.3953  -22.3800 H   0  0  0  0  0  0  0  0  0  0  0  0
   -6.6343   -2.9269  -21.0446 H   0  0  0  0  0  0  0  0  0  0  0  0
   -7.3669   -1.8946  -18.4032 H   0  0  0  0  0  0  0  0  0  0  0  0
   -4.6019    0.9175  -17.1891 H   0  0  0  0  0  0  0  0  0  0  0  0
   -3.1887    2.1155  -18.8313 H   0  0  0  0  0  0  0  0  0  0  0  0
   -2.4066    2.4286  -21.1641 H   0  0  0  0  0  0  0  0  0  0  0  0
   -3.2775    0.9320  -22.9738 H   0  0  0  0  0  0  0  0  0  0  0  0
   -4.9426   -0.8030  -22.4447 H   0  0  0  0  0  0  0  0  0  0  0  0
   -8.3296   -2.6769  -24.8393 H   0  0  0  0  0  0  0  0  0  0  0  0
   -6.8684   -2.1115  -24.0009 H   0  0  0  0  0  0  0  0  0  0  0  0
   -6.7889    0.8771  -22.9850 H   0  0  0  0  0  0  0  0  0  0  0  0
   -7.5488    2.4960  -21.5814 H   0  0  0  0  0  0  0  0  0  0  0  0
   -7.1485    4.7549  -20.6071 H   0  0  0  0  0  0  0  0  0  0  0  0
   -7.0959    7.1695  -21.2157 H   0  0  0  0  0  0  0  0  0  0  0  0
   -6.4330    6.6859  -19.6541 H   0  0  0  0  0  0  0  0  0  0  0  0
   -5.8201    9.1850  -21.2446 H   0  0  0  0  0  0  0  0  0  0  0  0
   -6.3544    9.0270  -19.5471 H   0  0  0  0  0  0  0  0  0  0  0  0
   -3.5199    8.6864  -21.6907 H   0  0  0  0  0  0  0  0  0  0  0  0
   -2.4947    8.1410  -20.3238 H   0  0  0  0  0  0  0  0  0  0  0  0
   -4.0153    5.3962  -23.4591 H   0  0  0  0  0  0  0  0  0  0  0  0
   -4.5939    3.2788  -24.5780 H   0  0  0  0  0  0  0  0  0  0  0  0
  1  2  2  0
  2  3  1  0
  3  4  1  0
  4  5  1  0
  5  6  1  0
  6  7  2  0
  7  8  1  0
  8  9  2  0
  9 10  1  0
  9 11  1  0
 11 12  2  0
 12 13  1  0
 13 14  1  0
 14 15  2  0
 14 16  1  0
 16 17  1  0
 17 18  2  0
 18 19  1  0
 19 20  2  0
 20 21  1  0
 21 22  2  0
 22 23  1  0
 23 24  2  0
 24 25  1  0
 25 26  2  0
 13 27  1  0
  2 28  1  0
 28 29  1  0
 29 30  2  0
 30 31  1  0
 31 32  2  0
 32 33  1  0
 33 34  1  0
 34 35  1  0
 35 36  1  0
 36 37  1  0
 37 38  1  0
 38 39  2  0
 32 40  1  0
 40 41  2  0
 27  4  1  0
 41 29  1  0
 12  6  1  0
 26 17  1  0
 38 33  1  0
 26 21  1  0
  3 42  1  0
  3 43  1  0
  4 44  1  1
  5 45  1  0
  5 46  1  0
  7 47  1  0
  8 48  1  0
 11 49  1  0
 13 50  1  1
 16 51  1  0
 18 52  1  0
 20 53  1  0
 22 54  1  0
 23 55  1  0
 24 56  1  0
 25 57  1  0
 27 58  1  0
 27 59  1  0
 28 60  1  0
 30 61  1  0
 31 62  1  0
 34 63  1  0
 34 64  1  0
 35 65  1  0
 35 66  1  0
 37 67  1  0
 37 68  1  0
 40 69  1  0
 41 70  1  0
M  CHG  1   4   1
M  END
>  <RMSD>  (40) 
0.08007851852505687

$$$$

     RDKit          3D

 57 62  0  0  0  0  0  0  0  0999 V2000
   -7.2442   -5.0254  -23.0406 C   0  0  0  0  0  0  0  0  0  0  0  0
   -7.5684   -3.8708  -22.1046 C   0  0  1  0  0  0  0  0  0  0  0  0
   -6.3587   -3.2951  -21.3584 C   0  0  0  0  0  0  0  0  0  0  0  0
   -6.8174   -1.9724  -20.9740 N   0  0  0  0  0  0  0  0  0  0  0  0
   -6.1794   -1.1525  -20.0047 C   0  0  0  0  0  0  0  0  0  0  0  0
   -6.5489   -1.2431  -18.6851 C   0  0  0  0  0  0  0  0  0  0  0  0
   -6.0153   -0.5031  -17.6826 N   0  0  0  0  0  0  0  0  0  0  0  0
   -5.0741    0.3588  -17.9984 C   0  0  0  0  0  0  0  0  0  0  0  0
   -4.5742    0.5397  -19.3229 C   0  0  0  0  0  0  0  0  0  0  0  0
   -3.5561    1.4881  -19.6315 C   0  0  0  0  0  0  0  0  0  0  0  0
   -3.1040    1.6256  -20.9179 C   0  0  0  0  0  0  0  0  0  0  0  0
   -3.6309    0.8228  -21.9508 C   0  0  0  0  0  0  0  0  0  0  0  0
   -4.6108   -0.1010  -21.6757 C   0  0  0  0  0  0  0  0  0  0  0  0
   -5.1262   -0.2505  -20.3573 C   0  0  0  0  0  0  0  0  0  0  0  0
   -7.8883   -1.5302  -21.7215 C   0  0  0  0  0  0  0  0  0  0  0  0
   -8.4263   -0.4528  -21.5806 O   0  0  0  0  0  0  0  0  0  0  0  0
   -8.2402   -2.6312  -22.7542 C   0  0  1  0  0  0  0  0  0  0  0  0
   -7.5973   -2.2607  -24.1179 C   0  0  0  0  0  0  0  0  0  0  0  0
   -8.1473   -1.0126  -24.6351 N   0  0  0  0  0  0  0  0  0  0  0  0
   -7.3310   -0.2696  -25.5923 C   0  0  0  0  0  0  0  0  0  0  0  0
   -7.6102    1.1942  -25.6299 C   0  0  0  0  0  0  0  0  0  0  0  0
   -8.0191    1.8579  -26.6841 N   0  0  0  0  0  0  0  0  0  0  0  0
   -8.1380    3.1421  -26.2925 N   0  0  0  0  0  0  0  0  0  0  0  0
   -7.7760    3.2795  -25.0651 N   0  0  0  0  0  0  0  0  0  0  0  0
   -7.4289    2.0680  -24.6236 N   0  0  0  0  0  0  0  0  0  0  0  0
   -6.8956    1.8851  -23.2946 C   0  0  0  0  0  0  0  0  0  0  0  0
   -9.5072   -0.8052  -24.6326 C   0  0  0  0  0  0  0  0  0  0  0  0
  -10.0474    0.1156  -25.2277 O   0  0  0  0  0  0  0  0  0  0  0  0
  -10.3329   -1.7767  -23.8404 C   0  0  0  0  0  0  0  0  0  0  0  0
  -11.7260   -1.7111  -23.9699 C   0  0  0  0  0  0  0  0  0  0  0  0
  -12.5398   -2.5632  -23.2510 C   0  0  0  0  0  0  0  0  0  0  0  0
  -11.9301   -3.4879  -22.4118 C   0  0  0  0  0  0  0  0  0  0  0  0
  -12.7021   -4.3215  -21.6960 F   0  0  0  0  0  0  0  0  0  0  0  0
  -10.5609   -3.5788  -22.2622 C   0  0  0  0  0  0  0  0  0  0  0  0
   -9.7360   -2.7029  -22.9736 C   0  0  0  0  0  0  0  0  0  0  0  0
   -8.1193   -5.3331  -23.6217 H   0  0  0  0  0  0  0  0  0  0  0  0
   -6.8879   -5.8972  -22.4856 H   0  0  0  0  0  0  0  0  0  0  0  0
   -6.4643   -4.7475  -23.7549 H   0  0  0  0  0  0  0  0  0  0  0  0
   -8.2391   -4.2429  -21.3252 H   0  0  0  0  0  0  0  0  0  0  0  0
   -5.4765   -3.2709  -22.0201 H   0  0  0  0  0  0  0  0  0  0  0  0
   -6.1010   -3.8814  -20.4749 H   0  0  0  0  0  0  0  0  0  0  0  0
   -7.3340   -1.9368  -18.3937 H   0  0  0  0  0  0  0  0  0  0  0  0
   -4.6512    0.9618  -17.1938 H   0  0  0  0  0  0  0  0  0  0  0  0
   -3.1498    2.1077  -18.8361 H   0  0  0  0  0  0  0  0  0  0  0  0
   -2.3326    2.3531  -21.1563 H   0  0  0  0  0  0  0  0  0  0  0  0
   -3.2789    0.9465  -22.9722 H   0  0  0  0  0  0  0  0  0  0  0  0
   -5.0199   -0.7071  -22.4772 H   0  0  0  0  0  0  0  0  0  0  0  0
   -6.5171   -2.1374  -23.9887 H   0  0  0  0  0  0  0  0  0  0  0  0
   -7.7503   -3.0898  -24.8288 H   0  0  0  0  0  0  0  0  0  0  0  0
   -6.2778   -0.4125  -25.3093 H   0  0  0  0  0  0  0  0  0  0  0  0
   -7.4506   -0.6443  -26.6175 H   0  0  0  0  0  0  0  0  0  0  0  0
   -7.5720    2.2944  -22.5473 H   0  0  0  0  0  0  0  0  0  0  0  0
   -5.9185    2.3612  -23.1933 H   0  0  0  0  0  0  0  0  0  0  0  0
   -6.7949    0.8226  -23.1102 H   0  0  0  0  0  0  0  0  0  0  0  0
  -12.1642   -0.9823  -24.6422 H   0  0  0  0  0  0  0  0  0  0  0  0
  -13.6244   -2.5221  -23.3185 H   0  0  0  0  0  0  0  0  0  0  0  0
  -10.1603   -4.3320  -21.5938 H   0  0  0  0  0  0  0  0  0  0  0  0
  1  2  1  0
  2  3  1  0
  3  4  1  0
  4  5  1  0
  5  6  2  0
  6  7  1  0
  7  8  2  0
  8  9  1  0
  9 10  2  0
 10 11  1  0
 11 12  2  0
 12 13  1  0
 13 14  2  0
  4 15  1  0
 15 16  2  0
 15 17  1  0
 17 18  1  6
 18 19  1  0
 19 20  1  0
 20 21  1  0
 21 22  2  0
 22 23  1  0
 23 24  2  0
 24 25  1  0
 25 26  1  0
 19 27  1  0
 27 28  2  0
 27 29  1  0
 29 30  2  0
 30 31  1  0
 31 32  2  0
 32 33  1  0
 32 34  1  0
 34 35  2  0
 17  2  1  0
 25 21  1  0
 35 29  1  0
 14  5  1  0
 35 17  1  0
 14  9  1  0
  1 36  1  0
  1 37  1  0
  1 38  1  0
  2 39  1  1
  3 40  1  0
  3 41  1  0
  6 42  1  0
  8 43  1  0
 10 44  1  0
 11 45  1  0
 12 46  1  0
 13 47  1  0
 18 48  1  0
 18 49  1  0
 20 50  1  0
 20 51  1  0
 26 52  1  0
 26 53  1  0
 26 54  1  0
 30 55  1  0
 31 56  1  0
 34 57  1  0
M  END
>  <RMSD>  (41) 
0.05600890293685564

$$$$

     RDKit          3D

 42 45  0  0  0  0  0  0  0  0999 V2000
   -7.4370   -0.1612  -25.6106 C   0  0  0  0  0  0  0  0  0  0  0  0
   -8.2408   -0.8467  -24.6162 N   0  0  0  0  0  0  0  0  0  0  0  0
   -7.7049   -2.0988  -24.1184 C   0  0  0  0  0  0  0  0  0  0  0  0
   -8.3639   -2.5003  -22.7950 C   0  0  1  0  0  0  0  0  0  0  0  0
   -7.9332   -1.5700  -21.6541 C   0  0  0  0  0  0  0  0  0  0  0  0
   -8.5336   -0.5602  -21.3482 O   0  0  0  0  0  0  0  0  0  0  0  0
   -6.7853   -1.9575  -20.9977 N   0  0  0  0  0  0  0  0  0  0  0  0
   -6.1658   -1.1529  -20.0036 C   0  0  0  0  0  0  0  0  0  0  0  0
   -6.5324   -1.2538  -18.6865 C   0  0  0  0  0  0  0  0  0  0  0  0
   -5.9989   -0.5201  -17.6778 N   0  0  0  0  0  0  0  0  0  0  0  0
   -5.0703    0.3537  -17.9937 C   0  0  0  0  0  0  0  0  0  0  0  0
   -4.5676    0.5400  -19.3143 C   0  0  0  0  0  0  0  0  0  0  0  0
   -3.5666    1.4997  -19.6322 C   0  0  0  0  0  0  0  0  0  0  0  0
   -3.1150    1.6261  -20.9191 C   0  0  0  0  0  0  0  0  0  0  0  0
   -3.6310    0.8053  -21.9486 C   0  0  0  0  0  0  0  0  0  0  0  0
   -4.6016   -0.1220  -21.6715 C   0  0  0  0  0  0  0  0  0  0  0  0
   -5.1044   -0.2597  -20.3478 C   0  0  0  0  0  0  0  0  0  0  0  0
   -9.8554   -2.4762  -22.9569 C   0  0  0  0  0  0  0  0  0  0  0  0
  -10.6573   -3.3455  -22.2168 C   0  0  0  0  0  0  0  0  0  0  0  0
  -12.0374   -3.2373  -22.2970 C   0  0  0  0  0  0  0  0  0  0  0  0
  -13.0328   -4.3274  -21.3767 Cl  0  0  0  0  0  0  0  0  0  0  0  0
  -12.6387   -2.2650  -23.0997 C   0  0  0  0  0  0  0  0  0  0  0  0
  -11.8349   -1.4040  -23.8292 C   0  0  0  0  0  0  0  0  0  0  0  0
  -10.4404   -1.5106  -23.7688 C   0  0  0  0  0  0  0  0  0  0  0  0
   -9.5882   -0.5832  -24.5953 C   0  0  0  0  0  0  0  0  0  0  0  0
  -10.0839    0.3180  -25.2448 O   0  0  0  0  0  0  0  0  0  0  0  0
   -7.5092   -0.6352  -26.5986 H   0  0  0  0  0  0  0  0  0  0  0  0
   -6.3928   -0.1813  -25.2905 H   0  0  0  0  0  0  0  0  0  0  0  0
   -7.7685    0.8717  -25.6995 H   0  0  0  0  0  0  0  0  0  0  0  0
   -6.6304   -1.9640  -23.9664 H   0  0  0  0  0  0  0  0  0  0  0  0
   -7.8274   -2.9099  -24.8543 H   0  0  0  0  0  0  0  0  0  0  0  0
   -8.0367   -3.5095  -22.5360 H   0  0  0  0  0  0  0  0  0  0  0  0
   -6.2758   -2.7555  -21.3459 H   0  0  0  0  0  0  0  0  0  0  0  0
   -7.3005   -1.9661  -18.3924 H   0  0  0  0  0  0  0  0  0  0  0  0
   -4.6581    0.9673  -17.1910 H   0  0  0  0  0  0  0  0  0  0  0  0
   -3.1784    2.1343  -18.8387 H   0  0  0  0  0  0  0  0  0  0  0  0
   -2.3557    2.3646  -21.1635 H   0  0  0  0  0  0  0  0  0  0  0  0
   -3.2620    0.9117  -22.9647 H   0  0  0  0  0  0  0  0  0  0  0  0
   -5.0083   -0.7464  -22.4622 H   0  0  0  0  0  0  0  0  0  0  0  0
  -10.2061   -4.1067  -21.5831 H   0  0  0  0  0  0  0  0  0  0  0  0
  -13.7241   -2.1894  -23.1389 H   0  0  0  0  0  0  0  0  0  0  0  0
  -12.2810   -0.6406  -24.4582 H   0  0  0  0  0  0  0  0  0  0  0  0
  1  2  1  0
  2  3  1  0
  3  4  1  0
  4  5  1  0
  5  6  2  0
  5  7  1  0
  7  8  1  0
  8  9  2  0
  9 10  1  0
 10 11  2  0
 11 12  1  0
 12 13  2  0
 13 14  1  0
 14 15  2  0
 15 16  1  0
 16 17  2  0
  4 18  1  0
 18 19  2  0
 19 20  1  0
 20 21  1  0
 20 22  2  0
 22 23  1  0
 23 24  2  0
 24 25  1  0
 25 26  2  0
 25  2  1  0
 17  8  1  0
 24 18  1  0
 17 12  1  0
  1 27  1  0
  1 28  1  0
  1 29  1  0
  3 30  1  0
  3 31  1  0
  4 32  1  1
  7 33  1  0
  9 34  1  0
 11 35  1  0
 13 36  1  0
 14 37  1  0
 15 38  1  0
 16 39  1  0
 19 40  1  0
 22 41  1  0
 23 42  1  0
M  END
>  <RMSD>  (42) 
0.04069647317833469

$$$$

     RDKit          3D

 63 68  0  0  0  0  0  0  0  0999 V2000
   -6.7759    2.5698  -23.1883 C   0  0  0  0  0  0  0  0  0  0  0  0
   -7.3079    1.3657  -23.7939 N   0  0  0  0  0  0  0  0  0  0  0  0
   -6.8486    0.9929  -25.0061 C   0  0  0  0  0  0  0  0  0  0  0  0
   -6.0435    1.6571  -25.6490 O   0  0  0  0  0  0  0  0  0  0  0  0
   -7.3862   -0.3147  -25.5991 C   0  0  0  0  0  0  0  0  0  0  0  0
   -8.1811   -1.1289  -24.7073 N   0  0  0  0  0  0  0  0  0  0  0  0
   -7.5844   -2.3056  -24.1180 C   0  0  0  0  0  0  0  0  0  0  0  0
   -8.1975   -2.6612  -22.7387 C   0  0  2  0  0  0  0  0  0  0  0  0
   -7.8436   -1.5513  -21.7184 C   0  0  0  0  0  0  0  0  0  0  0  0
   -8.3379   -0.4445  -21.6150 O   0  0  0  0  0  0  0  0  0  0  0  0
   -6.8023   -1.9965  -20.9450 N   0  0  0  0  0  0  0  0  0  0  0  0
   -6.1729   -1.1534  -19.9946 C   0  0  0  0  0  0  0  0  0  0  0  0
   -6.5485   -1.2356  -18.6798 C   0  0  0  0  0  0  0  0  0  0  0  0
   -6.0150   -0.4952  -17.6767 N   0  0  0  0  0  0  0  0  0  0  0  0
   -5.0734    0.3590  -18.0051 C   0  0  0  0  0  0  0  0  0  0  0  0
   -4.5812    0.5439  -19.3309 C   0  0  0  0  0  0  0  0  0  0  0  0
   -3.5594    1.4868  -19.6315 C   0  0  0  0  0  0  0  0  0  0  0  0
   -3.0991    1.6193  -20.9137 C   0  0  0  0  0  0  0  0  0  0  0  0
   -3.6285    0.8212  -21.9555 C   0  0  0  0  0  0  0  0  0  0  0  0
   -4.6248   -0.0883  -21.6918 C   0  0  0  0  0  0  0  0  0  0  0  0
   -5.1370   -0.2418  -20.3696 C   0  0  0  0  0  0  0  0  0  0  0  0
   -6.2847   -3.2909  -21.3262 C   0  0  0  0  0  0  0  0  0  0  0  0
   -7.4407   -3.8884  -22.1428 C   0  0  2  0  0  0  0  0  0  0  0  0
   -6.9385   -4.9060  -23.1816 C   0  0  0  0  0  0  0  0  0  0  0  0
   -6.4312   -6.1262  -22.5749 N   0  0  0  0  0  0  0  0  0  0  0  0
   -5.2345   -6.3627  -21.9765 C   0  0  0  0  0  0  0  0  0  0  0  0
   -5.3273   -7.5946  -21.3652 C   0  0  0  0  0  0  0  0  0  0  0  0
   -6.6464   -8.0148  -21.6348 C   0  0  0  0  0  0  0  0  0  0  0  0
   -7.2978   -7.1153  -22.3534 N   0  0  0  0  0  0  0  0  0  0  0  0
   -9.7026   -2.7549  -22.9347 C   0  0  0  0  0  0  0  0  0  0  0  0
  -10.5242   -3.6318  -22.2122 C   0  0  0  0  0  0  0  0  0  0  0  0
  -11.9018   -3.5773  -22.3713 C   0  0  0  0  0  0  0  0  0  0  0  0
  -12.9130   -4.6738  -21.4699 Cl  0  0  0  0  0  0  0  0  0  0  0  0
  -12.5106   -2.6579  -23.2273 C   0  0  0  0  0  0  0  0  0  0  0  0
  -11.7078   -1.7998  -23.9501 C   0  0  0  0  0  0  0  0  0  0  0  0
  -10.3225   -1.8557  -23.8235 C   0  0  0  0  0  0  0  0  0  0  0  0
   -9.5323   -0.9375  -24.7070 C   0  0  0  0  0  0  0  0  0  0  0  0
  -10.0533   -0.0666  -25.3928 O   0  0  0  0  0  0  0  0  0  0  0  0
   -5.7107    2.4473  -22.9552 H   0  0  0  0  0  0  0  0  0  0  0  0
   -7.3227    2.7674  -22.2634 H   0  0  0  0  0  0  0  0  0  0  0  0
   -6.8815    3.4282  -23.8619 H   0  0  0  0  0  0  0  0  0  0  0  0
   -7.8286    0.7208  -23.2021 H   0  0  0  0  0  0  0  0  0  0  0  0
   -6.5192   -0.8881  -25.9391 H   0  0  0  0  0  0  0  0  0  0  0  0
   -7.9797   -0.0652  -26.4869 H   0  0  0  0  0  0  0  0  0  0  0  0
   -6.5133   -2.1062  -24.0062 H   0  0  0  0  0  0  0  0  0  0  0  0
   -7.7186   -3.1639  -24.7901 H   0  0  0  0  0  0  0  0  0  0  0  0
   -7.3302   -1.9366  -18.3945 H   0  0  0  0  0  0  0  0  0  0  0  0
   -4.6512    0.9600  -17.1992 H   0  0  0  0  0  0  0  0  0  0  0  0
   -3.1624    2.0965  -18.8222 H   0  0  0  0  0  0  0  0  0  0  0  0
   -2.3219    2.3422  -21.1440 H   0  0  0  0  0  0  0  0  0  0  0  0
   -3.2697    0.9505  -22.9756 H   0  0  0  0  0  0  0  0  0  0  0  0
   -5.0263   -0.6943  -22.5008 H   0  0  0  0  0  0  0  0  0  0  0  0
   -5.3586   -3.2173  -21.9243 H   0  0  0  0  0  0  0  0  0  0  0  0
   -6.0423   -3.8761  -20.4386 H   0  0  0  0  0  0  0  0  0  0  0  0
   -8.0993   -4.4013  -21.4363 H   0  0  0  0  0  0  0  0  0  0  0  0
   -7.7695   -5.1963  -23.8284 H   0  0  0  0  0  0  0  0  0  0  0  0
   -6.1499   -4.4698  -23.8052 H   0  0  0  0  0  0  0  0  0  0  0  0
   -4.3994   -5.6703  -22.0502 H   0  0  0  0  0  0  0  0  0  0  0  0
   -4.5840   -8.1371  -20.7954 H   0  0  0  0  0  0  0  0  0  0  0  0
   -7.1907   -8.9083  -21.3434 H   0  0  0  0  0  0  0  0  0  0  0  0
  -10.1024   -4.3613  -21.5271 H   0  0  0  0  0  0  0  0  0  0  0  0
  -13.5914   -2.6190  -23.3225 H   0  0  0  0  0  0  0  0  0  0  0  0
  -12.1228   -1.0646  -24.6327 H   0  0  0  0  0  0  0  0  0  0  0  0
  1  2  1  0
  2  3  1  0
  3  4  2  0
  3  5  1  0
  5  6  1  0
  6  7  1  0
  8  7  1  6
  8  9  1  0
  9 10  2  0
  9 11  1  0
 11 12  1  0
 12 13  2  0
 13 14  1  0
 14 15  2  0
 15 16  1  0
 16 17  2  0
 17 18  1  0
 18 19  2  0
 19 20  1  0
 20 21  2  0
 11 22  1  0
 22 23  1  0
 23 24  1  0
 24 25  1  0
 25 26  1  0
 26 27  2  0
 27 28  1  0
 28 29  2  0
  8 30  1  0
 30 31  2  0
 31 32  1  0
 32 33  1  0
 32 34  2  0
 34 35  1  0
 35 36  2  0
 36 37  1  0
 37 38  2  0
 37  6  1  0
 23  8  1  0
 29 25  1  0
 36 30  1  0
 21 12  1  0
 21 16  1  0
  1 39  1  0
  1 40  1  0
  1 41  1  0
  2 42  1  0
  5 43  1  0
  5 44  1  0
  7 45  1  0
  7 46  1  0
 13 47  1  0
 15 48  1  0
 17 49  1  0
 18 50  1  0
 19 51  1  0
 20 52  1  0
 22 53  1  0
 22 54  1  0
 23 55  1  1
 24 56  1  0
 24 57  1  0
 26 58  1  0
 27 59  1  0
 28 60  1  0
 31 61  1  0
 34 62  1  0
 35 63  1  0
M  END
>  <RMSD>  (43) 
0.06222953726065442

$$$$

     RDKit          3D

 61 66  0  0  0  0  0  0  0  0999 V2000
   -6.7782    2.5954  -23.1947 C   0  0  0  0  0  0  0  0  0  0  0  0
   -7.3352    1.4002  -23.8022 N   0  0  0  0  0  0  0  0  0  0  0  0
   -6.8540    0.9927  -24.9987 C   0  0  0  0  0  0  0  0  0  0  0  0
   -6.0406    1.6386  -25.6503 O   0  0  0  0  0  0  0  0  0  0  0  0
   -7.3779   -0.3295  -25.5759 C   0  0  0  0  0  0  0  0  0  0  0  0
   -8.1737   -1.1476  -24.6882 N   0  0  0  0  0  0  0  0  0  0  0  0
   -7.5826   -2.3330  -24.0952 C   0  0  0  0  0  0  0  0  0  0  0  0
   -8.2073   -2.6682  -22.7149 C   0  0  2  0  0  0  0  0  0  0  0  0
   -7.8493   -1.5497  -21.7028 C   0  0  0  0  0  0  0  0  0  0  0  0
   -8.3604   -0.4486  -21.5914 O   0  0  0  0  0  0  0  0  0  0  0  0
   -6.7925   -1.9860  -20.9433 N   0  0  0  0  0  0  0  0  0  0  0  0
   -6.1657   -1.1526  -19.9879 C   0  0  0  0  0  0  0  0  0  0  0  0
   -6.5466   -1.2379  -18.6741 C   0  0  0  0  0  0  0  0  0  0  0  0
   -6.0212   -0.4924  -17.6704 N   0  0  0  0  0  0  0  0  0  0  0  0
   -5.0794    0.3615  -18.0046 C   0  0  0  0  0  0  0  0  0  0  0  0
   -4.5847    0.5433  -19.3299 C   0  0  0  0  0  0  0  0  0  0  0  0
   -3.5639    1.4853  -19.6304 C   0  0  0  0  0  0  0  0  0  0  0  0
   -3.1050    1.6176  -20.9133 C   0  0  0  0  0  0  0  0  0  0  0  0
   -3.6323    0.8234  -21.9576 C   0  0  0  0  0  0  0  0  0  0  0  0
   -4.6259   -0.0875  -21.6936 C   0  0  0  0  0  0  0  0  0  0  0  0
   -5.1335   -0.2425  -20.3687 C   0  0  0  0  0  0  0  0  0  0  0  0
   -6.3002   -3.2963  -21.3003 C   0  0  0  0  0  0  0  0  0  0  0  0
   -7.4859   -3.8920  -22.0711 C   0  0  2  0  0  0  0  0  0  0  0  0
   -7.0375   -4.9981  -23.0306 C   0  0  0  0  0  0  0  0  0  0  0  0
   -6.4716   -6.1476  -22.3410 N   0  0  0  0  0  0  0  0  0  0  0  0
   -5.2442   -6.2337  -21.8457 N   0  0  0  0  0  0  0  0  0  0  0  0
   -5.2665   -7.4474  -21.3109 C   0  0  0  0  0  0  0  0  0  0  0  0
   -6.4531   -8.0623  -21.4819 N   0  0  0  0  0  0  0  0  0  0  0  0
   -7.1959   -7.2202  -22.1394 N   0  0  0  0  0  0  0  0  0  0  0  0
   -9.7105   -2.7541  -22.9167 C   0  0  0  0  0  0  0  0  0  0  0  0
  -10.5430   -3.6195  -22.1938 C   0  0  0  0  0  0  0  0  0  0  0  0
  -11.9181   -3.5445  -22.3556 C   0  0  0  0  0  0  0  0  0  0  0  0
  -12.9363   -4.6226  -21.4480 Cl  0  0  0  0  0  0  0  0  0  0  0  0
  -12.5225   -2.6242  -23.2099 C   0  0  0  0  0  0  0  0  0  0  0  0
  -11.7109   -1.7748  -23.9286 C   0  0  0  0  0  0  0  0  0  0  0  0
  -10.3249   -1.8504  -23.8026 C   0  0  0  0  0  0  0  0  0  0  0  0
   -9.5250   -0.9358  -24.6764 C   0  0  0  0  0  0  0  0  0  0  0  0
  -10.0482   -0.0486  -25.3365 O   0  0  0  0  0  0  0  0  0  0  0  0
   -5.7132    2.4545  -22.9698 H   0  0  0  0  0  0  0  0  0  0  0  0
   -6.8776    3.4675  -23.8523 H   0  0  0  0  0  0  0  0  0  0  0  0
   -7.3097    2.7955  -22.2618 H   0  0  0  0  0  0  0  0  0  0  0  0
   -7.8610    0.7685  -23.2006 H   0  0  0  0  0  0  0  0  0  0  0  0
   -6.5010   -0.8915  -25.9109 H   0  0  0  0  0  0  0  0  0  0  0  0
   -7.9653   -0.0863  -26.4697 H   0  0  0  0  0  0  0  0  0  0  0  0
   -7.7290   -3.1976  -24.7566 H   0  0  0  0  0  0  0  0  0  0  0  0
   -6.5064   -2.1554  -23.9854 H   0  0  0  0  0  0  0  0  0  0  0  0
   -7.3314   -1.9418  -18.4016 H   0  0  0  0  0  0  0  0  0  0  0  0
   -4.6440    0.9618  -17.2070 H   0  0  0  0  0  0  0  0  0  0  0  0
   -3.1617    2.0926  -18.8228 H   0  0  0  0  0  0  0  0  0  0  0  0
   -2.3235    2.3344  -21.1434 H   0  0  0  0  0  0  0  0  0  0  0  0
   -3.2667    0.9493  -22.9765 H   0  0  0  0  0  0  0  0  0  0  0  0
   -5.0258   -0.6906  -22.5051 H   0  0  0  0  0  0  0  0  0  0  0  0
   -6.0646   -3.8758  -20.4076 H   0  0  0  0  0  0  0  0  0  0  0  0
   -5.3831   -3.2558  -21.9194 H   0  0  0  0  0  0  0  0  0  0  0  0
   -8.1553   -4.3536  -21.3402 H   0  0  0  0  0  0  0  0  0  0  0  0
   -6.2755   -4.6369  -23.7189 H   0  0  0  0  0  0  0  0  0  0  0  0
   -7.8776   -5.3798  -23.6135 H   0  0  0  0  0  0  0  0  0  0  0  0
   -4.4232   -7.9105  -20.8126 H   0  0  0  0  0  0  0  0  0  0  0  0
  -10.1507   -4.3597  -21.5030 H   0  0  0  0  0  0  0  0  0  0  0  0
  -13.6033   -2.5800  -23.3025 H   0  0  0  0  0  0  0  0  0  0  0  0
  -12.1262   -1.0398  -24.6092 H   0  0  0  0  0  0  0  0  0  0  0  0
  1  2  1  0
  2  3  1  0
  3  4  2  0
  3  5  1  0
  5  6  1  0
  6  7  1  0
  8  7  1  6
  8  9  1  0
  9 10  2  0
  9 11  1  0
 11 12  1  0
 12 13  2  0
 13 14  1  0
 14 15  2  0
 15 16  1  0
 16 17  2  0
 17 18  1  0
 18 19  2  0
 19 20  1  0
 20 21  2  0
 11 22  1  0
 22 23  1  0
 23 24  1  0
 24 25  1  0
 25 26  1  0
 26 27  2  0
 27 28  1  0
 28 29  2  0
  8 30  1  0
 30 31  2  0
 31 32  1  0
 32 33  1  0
 32 34  2  0
 34 35  1  0
 35 36  2  0
 36 37  1  0
 37 38  2  0
 37  6  1  0
 23  8  1  0
 29 25  1  0
 36 30  1  0
 21 12  1  0
 21 16  1  0
  1 39  1  0
  1 40  1  0
  1 41  1  0
  2 42  1  0
  5 43  1  0
  5 44  1  0
  7 45  1  0
  7 46  1  0
 13 47  1  0
 15 48  1  0
 17 49  1  0
 18 50  1  0
 19 51  1  0
 20 52  1  0
 22 53  1  0
 22 54  1  0
 23 55  1  1
 24 56  1  0
 24 57  1  0
 27 58  1  0
 31 59  1  0
 34 60  1  0
 35 61  1  0
M  END
>  <RMSD>  (44) 
0.060880339775347514

$$$$

     RDKit          3D

 62 67  0  0  0  0  0  0  0  0999 V2000
   -8.7049    2.3468  -27.8055 C   0  0  0  0  0  0  0  0  0  0  0  0
   -7.2445    2.2638  -27.3845 C   0  0  0  0  0  0  0  0  0  0  0  0
   -7.0550    2.2213  -25.9405 N   0  0  0  0  0  0  0  0  0  0  0  0
   -6.8578    3.3541  -25.2451 N   0  0  0  0  0  0  0  0  0  0  0  0
   -6.7714    2.9660  -23.9769 C   0  0  0  0  0  0  0  0  0  0  0  0
   -6.9405    1.5781  -23.8439 C   0  0  0  0  0  0  0  0  0  0  0  0
   -7.1437    1.1349  -25.1294 C   0  0  0  0  0  0  0  0  0  0  0  0
   -7.3334   -0.2749  -25.5977 C   0  0  0  0  0  0  0  0  0  0  0  0
   -8.1393   -1.0602  -24.6743 N   0  0  0  0  0  0  0  0  0  0  0  0
   -7.5856   -2.2828  -24.1185 C   0  0  0  0  0  0  0  0  0  0  0  0
   -8.2338   -2.6344  -22.7548 C   0  0  2  0  0  0  0  0  0  0  0  0
   -7.8810   -1.5347  -21.7209 C   0  0  0  0  0  0  0  0  0  0  0  0
   -8.4164   -0.4570  -21.5743 O   0  0  0  0  0  0  0  0  0  0  0  0
   -6.8132   -1.9785  -20.9710 N   0  0  0  0  0  0  0  0  0  0  0  0
   -6.1765   -1.1544  -20.0031 C   0  0  0  0  0  0  0  0  0  0  0  0
   -6.5487   -1.2410  -18.6866 C   0  0  0  0  0  0  0  0  0  0  0  0
   -6.0146   -0.4997  -17.6825 N   0  0  0  0  0  0  0  0  0  0  0  0
   -5.0741    0.3591  -18.0011 C   0  0  0  0  0  0  0  0  0  0  0  0
   -4.5710    0.5391  -19.3230 C   0  0  0  0  0  0  0  0  0  0  0  0
   -3.5532    1.4860  -19.6317 C   0  0  0  0  0  0  0  0  0  0  0  0
   -3.1031    1.6256  -20.9159 C   0  0  0  0  0  0  0  0  0  0  0  0
   -3.6380    0.8286  -21.9542 C   0  0  0  0  0  0  0  0  0  0  0  0
   -4.6174   -0.0956  -21.6798 C   0  0  0  0  0  0  0  0  0  0  0  0
   -5.1230   -0.2526  -20.3602 C   0  0  0  0  0  0  0  0  0  0  0  0
   -6.3516   -3.2996  -21.3539 C   0  0  0  0  0  0  0  0  0  0  0  0
   -7.5627   -3.8730  -22.1021 C   0  0  2  0  0  0  0  0  0  0  0  0
   -7.2354   -5.0309  -23.0350 C   0  0  0  0  0  0  0  0  0  0  0  0
   -9.7291   -2.7038  -22.9776 C   0  0  0  0  0  0  0  0  0  0  0  0
  -10.5545   -3.5810  -22.2665 C   0  0  0  0  0  0  0  0  0  0  0  0
  -11.9234   -3.4931  -22.4168 C   0  0  0  0  0  0  0  0  0  0  0  0
  -12.6984   -4.3262  -21.7013 F   0  0  0  0  0  0  0  0  0  0  0  0
  -12.5327   -2.5680  -23.2602 C   0  0  0  0  0  0  0  0  0  0  0  0
  -11.7154   -1.7140  -23.9773 C   0  0  0  0  0  0  0  0  0  0  0  0
  -10.3248   -1.7730  -23.8461 C   0  0  0  0  0  0  0  0  0  0  0  0
   -9.4855   -0.8158  -24.6493 C   0  0  0  0  0  0  0  0  0  0  0  0
   -9.9823    0.1172  -25.2628 O   0  0  0  0  0  0  0  0  0  0  0  0
   -9.1594    3.2410  -27.3774 H   0  0  0  0  0  0  0  0  0  0  0  0
   -9.2682    1.4738  -27.4609 H   0  0  0  0  0  0  0  0  0  0  0  0
   -8.7866    2.4130  -28.8959 H   0  0  0  0  0  0  0  0  0  0  0  0
   -6.6838    3.1233  -27.7493 H   0  0  0  0  0  0  0  0  0  0  0  0
   -6.7775    1.3787  -27.8200 H   0  0  0  0  0  0  0  0  0  0  0  0
   -6.5870    3.6878  -23.1935 H   0  0  0  0  0  0  0  0  0  0  0  0
   -6.9301    0.9658  -22.9482 H   0  0  0  0  0  0  0  0  0  0  0  0
   -7.7729   -0.3139  -26.6053 H   0  0  0  0  0  0  0  0  0  0  0  0
   -6.3485   -0.7548  -25.6496 H   0  0  0  0  0  0  0  0  0  0  0  0
   -7.7287   -3.1187  -24.8210 H   0  0  0  0  0  0  0  0  0  0  0  0
   -6.5096   -2.1357  -23.9798 H   0  0  0  0  0  0  0  0  0  0  0  0
   -7.3329   -1.9355  -18.3933 H   0  0  0  0  0  0  0  0  0  0  0  0
   -4.6546    0.9632  -17.1936 H   0  0  0  0  0  0  0  0  0  0  0  0
   -3.1523    2.1063  -18.8307 H   0  0  0  0  0  0  0  0  0  0  0  0
   -2.3295    2.3525  -21.1528 H   0  0  0  0  0  0  0  0  0  0  0  0
   -3.2730    0.9412  -22.9711 H   0  0  0  0  0  0  0  0  0  0  0  0
   -5.0285   -0.7065  -22.4795 H   0  0  0  0  0  0  0  0  0  0  0  0
   -6.0900   -3.8823  -20.4683 H   0  0  0  0  0  0  0  0  0  0  0  0
   -5.4662   -3.2736  -22.0126 H   0  0  0  0  0  0  0  0  0  0  0  0
   -8.2394   -4.2394  -21.3266 H   0  0  0  0  0  0  0  0  0  0  0  0
   -6.8801   -5.9040  -22.4790 H   0  0  0  0  0  0  0  0  0  0  0  0
   -8.1099   -5.3385  -23.6177 H   0  0  0  0  0  0  0  0  0  0  0  0
   -6.4547   -4.7541  -23.7501 H   0  0  0  0  0  0  0  0  0  0  0  0
  -10.1524   -4.3339  -21.5958 H   0  0  0  0  0  0  0  0  0  0  0  0
  -13.6179   -2.5303  -23.3263 H   0  0  0  0  0  0  0  0  0  0  0  0
  -12.1505   -0.9850  -24.6517 H   0  0  0  0  0  0  0  0  0  0  0  0
  1  2  1  0
  2  3  1  0
  3  4  1  0
  4  5  2  0
  5  6  1  0
  6  7  2  0
  7  8  1  0
  8  9  1  0
  9 10  1  0
 11 10  1  6
 11 12  1  0
 12 13  2  0
 12 14  1  0
 14 15  1  0
 15 16  2  0
 16 17  1  0
 17 18  2  0
 18 19  1  0
 19 20  2  0
 20 21  1  0
 21 22  2  0
 22 23  1  0
 23 24  2  0
 14 25  1  0
 25 26  1  0
 26 27  1  0
 11 28  1  0
 28 29  2  0
 29 30  1  0
 30 31  1  0
 30 32  2  0
 32 33  1  0
 33 34  2  0
 34 35  1  0
 35 36  2  0
  7  3  1  0
 35  9  1  0
 26 11  1  0
 34 28  1  0
 24 15  1  0
 24 19  1  0
  1 37  1  0
  1 38  1  0
  1 39  1  0
  2 40  1  0
  2 41  1  0
  5 42  1  0
  6 43  1  0
  8 44  1  0
  8 45  1  0
 10 46  1  0
 10 47  1  0
 16 48  1  0
 18 49  1  0
 20 50  1  0
 21 51  1  0
 22 52  1  0
 23 53  1  0
 25 54  1  0
 25 55  1  0
 26 56  1  1
 27 57  1  0
 27 58  1  0
 27 59  1  0
 29 60  1  0
 32 61  1  0
 33 62  1  0
M  END
>  <RMSD>  (45) 
0.05714154445067804

$$$$

     RDKit          3D

 58 63  0  0  0  0  0  0  0  0999 V2000
   -4.6121    3.7593  -24.1896 C   0  0  0  0  0  0  0  0  0  0  0  0
   -5.6328    2.6780  -24.2782 C   0  0  0  0  0  0  0  0  0  0  0  0
   -5.6662    1.6490  -25.2502 C   0  0  0  0  0  0  0  0  0  0  0  0
   -6.7604    0.9267  -24.9038 C   0  0  0  0  0  0  0  0  0  0  0  0
   -7.3341   -0.2882  -25.5630 C   0  0  0  0  0  0  0  0  0  0  0  0
   -8.1632   -1.0914  -24.7011 N   0  0  0  0  0  0  0  0  0  0  0  0
   -7.5895   -2.2923  -24.1197 C   0  0  0  0  0  0  0  0  0  0  0  0
   -8.2333   -2.6370  -22.7518 C   0  0  2  0  0  0  0  0  0  0  0  0
   -7.8825   -1.5313  -21.7189 C   0  0  0  0  0  0  0  0  0  0  0  0
   -8.4106   -0.4537  -21.5731 O   0  0  0  0  0  0  0  0  0  0  0  0
   -6.8097   -1.9766  -20.9727 N   0  0  0  0  0  0  0  0  0  0  0  0
   -6.1766   -1.1525  -20.0056 C   0  0  0  0  0  0  0  0  0  0  0  0
   -6.5463   -1.2426  -18.6883 C   0  0  0  0  0  0  0  0  0  0  0  0
   -6.0134   -0.5016  -17.6835 N   0  0  0  0  0  0  0  0  0  0  0  0
   -5.0729    0.3596  -18.0002 C   0  0  0  0  0  0  0  0  0  0  0  0
   -4.5699    0.5401  -19.3223 C   0  0  0  0  0  0  0  0  0  0  0  0
   -3.5540    1.4877  -19.6308 C   0  0  0  0  0  0  0  0  0  0  0  0
   -3.1036    1.6254  -20.9155 C   0  0  0  0  0  0  0  0  0  0  0  0
   -3.6390    0.8252  -21.9528 C   0  0  0  0  0  0  0  0  0  0  0  0
   -4.6243   -0.0904  -21.6833 C   0  0  0  0  0  0  0  0  0  0  0  0
   -5.1238   -0.2494  -20.3621 C   0  0  0  0  0  0  0  0  0  0  0  0
   -6.3487   -3.2988  -21.3522 C   0  0  0  0  0  0  0  0  0  0  0  0
   -7.5589   -3.8747  -22.0993 C   0  0  2  0  0  0  0  0  0  0  0  0
   -7.2312   -5.0332  -23.0317 C   0  0  0  0  0  0  0  0  0  0  0  0
   -9.7277   -2.7100  -22.9768 C   0  0  0  0  0  0  0  0  0  0  0  0
  -10.5511   -3.5867  -22.2635 C   0  0  0  0  0  0  0  0  0  0  0  0
  -11.9200   -3.4996  -22.4142 C   0  0  0  0  0  0  0  0  0  0  0  0
  -12.6932   -4.3334  -21.6976 F   0  0  0  0  0  0  0  0  0  0  0  0
  -12.5324   -2.5768  -23.2561 C   0  0  0  0  0  0  0  0  0  0  0  0
  -11.7172   -1.7216  -23.9728 C   0  0  0  0  0  0  0  0  0  0  0  0
  -10.3276   -1.7778  -23.8420 C   0  0  0  0  0  0  0  0  0  0  0  0
   -9.5019   -0.8141  -24.6478 C   0  0  0  0  0  0  0  0  0  0  0  0
   -9.9945    0.1326  -25.2413 O   0  0  0  0  0  0  0  0  0  0  0  0
   -7.3393    1.4512  -23.8254 O   0  0  0  0  0  0  0  0  0  0  0  0
   -6.6321    2.5692  -23.4270 N   0  0  0  0  0  0  0  0  0  0  0  0
   -4.9768    4.6210  -23.6316 H   0  0  0  0  0  0  0  0  0  0  0  0
   -3.7128    3.3818  -23.6969 H   0  0  0  0  0  0  0  0  0  0  0  0
   -4.3077    4.0722  -25.1901 H   0  0  0  0  0  0  0  0  0  0  0  0
   -4.9857    1.4740  -26.0760 H   0  0  0  0  0  0  0  0  0  0  0  0
   -6.4925   -0.8859  -25.9211 H   0  0  0  0  0  0  0  0  0  0  0  0
   -7.9028    0.0027  -26.4514 H   0  0  0  0  0  0  0  0  0  0  0  0
   -6.5148   -2.1243  -23.9866 H   0  0  0  0  0  0  0  0  0  0  0  0
   -7.7235   -3.1282  -24.8195 H   0  0  0  0  0  0  0  0  0  0  0  0
   -7.3297   -1.9374  -18.3931 H   0  0  0  0  0  0  0  0  0  0  0  0
   -4.6541    0.9639  -17.1928 H   0  0  0  0  0  0  0  0  0  0  0  0
   -3.1534    2.1088  -18.8307 H   0  0  0  0  0  0  0  0  0  0  0  0
   -2.3291    2.3550  -21.1486 H   0  0  0  0  0  0  0  0  0  0  0  0
   -3.2667    0.9295  -22.9692 H   0  0  0  0  0  0  0  0  0  0  0  0
   -5.0371   -0.7067  -22.4787 H   0  0  0  0  0  0  0  0  0  0  0  0
   -6.0873   -3.8826  -20.4674 H   0  0  0  0  0  0  0  0  0  0  0  0
   -5.4641   -3.2761  -22.0106 H   0  0  0  0  0  0  0  0  0  0  0  0
   -8.2353   -4.2438  -21.3246 H   0  0  0  0  0  0  0  0  0  0  0  0
   -6.4516   -4.7572  -23.7467 H   0  0  0  0  0  0  0  0  0  0  0  0
   -8.1048   -5.3416  -23.6146 H   0  0  0  0  0  0  0  0  0  0  0  0
   -6.8755   -5.9058  -22.4764 H   0  0  0  0  0  0  0  0  0  0  0  0
  -10.1479   -4.3389  -21.5933 H   0  0  0  0  0  0  0  0  0  0  0  0
  -13.6162   -2.5390  -23.3228 H   0  0  0  0  0  0  0  0  0  0  0  0
  -12.1499   -0.9927  -24.6488 H   0  0  0  0  0  0  0  0  0  0  0  0
  1  2  1  0
  2  3  1  0
  3  4  2  0
  4  5  1  0
  5  6  1  0
  6  7  1  0
  8  7  1  6
  8  9  1  0
  9 10  2  0
  9 11  1  0
 11 12  1  0
 12 13  2  0
 13 14  1  0
 14 15  2  0
 15 16  1  0
 16 17  2  0
 17 18  1  0
 18 19  2  0
 19 20  1  0
 20 21  2  0
 11 22  1  0
 22 23  1  0
 23 24  1  0
  8 25  1  0
 25 26  2  0
 26 27  1  0
 27 28  1  0
 27 29  2  0
 29 30  1  0
 30 31  2  0
 31 32  1  0
 32 33  2  0
  4 34  1  0
 34 35  1  0
 35  2  2  0
 32  6  1  0
 23  8  1  0
 31 25  1  0
 21 12  1  0
 21 16  1  0
  1 36  1  0
  1 37  1  0
  1 38  1  0
  3 39  1  0
  5 40  1  0
  5 41  1  0
  7 42  1  0
  7 43  1  0
 13 44  1  0
 15 45  1  0
 17 46  1  0
 18 47  1  0
 19 48  1  0
 20 49  1  0
 22 50  1  0
 22 51  1  0
 23 52  1  1
 24 53  1  0
 24 54  1  0
 24 55  1  0
 26 56  1  0
 29 57  1  0
 30 58  1  0
M  END
>  <RMSD>  (46) 
0.056292195293873644

$$$$

     RDKit          3D

 57 62  0  0  0  0  0  0  0  0999 V2000
   -6.7578    2.6608  -23.2126 C   0  0  0  0  0  0  0  0  0  0  0  0
   -7.3155    1.4887  -23.8570 N   0  0  0  0  0  0  0  0  0  0  0  0
   -6.8355    1.0703  -25.0460 C   0  0  0  0  0  0  0  0  0  0  0  0
   -6.0107    1.7024  -25.6953 O   0  0  0  0  0  0  0  0  0  0  0  0
   -7.3430   -0.2763  -25.5831 C   0  0  0  0  0  0  0  0  0  0  0  0
   -8.1676   -1.0735  -24.6981 N   0  0  0  0  0  0  0  0  0  0  0  0
   -7.5940   -2.2755  -24.1234 C   0  0  0  0  0  0  0  0  0  0  0  0
   -8.2299   -2.6702  -22.7559 C   0  0  2  0  0  0  0  0  0  0  0  0
   -7.8759   -1.5652  -21.7230 C   0  0  0  0  0  0  0  0  0  0  0  0
   -8.4057   -0.4764  -21.5938 O   0  0  0  0  0  0  0  0  0  0  0  0
   -6.8174   -2.0043  -20.9620 N   0  0  0  0  0  0  0  0  0  0  0  0
   -6.1797   -1.1608  -20.0030 C   0  0  0  0  0  0  0  0  0  0  0  0
   -6.5489   -1.2367  -18.6858 C   0  0  0  0  0  0  0  0  0  0  0  0
   -6.0114   -0.4949  -17.6832 N   0  0  0  0  0  0  0  0  0  0  0  0
   -5.0690    0.3604  -18.0050 C   0  0  0  0  0  0  0  0  0  0  0  0
   -4.5755    0.5437  -19.3295 C   0  0  0  0  0  0  0  0  0  0  0  0
   -3.5534    1.4852  -19.6330 C   0  0  0  0  0  0  0  0  0  0  0  0
   -3.0918    1.6208  -20.9140 C   0  0  0  0  0  0  0  0  0  0  0  0
   -3.6254    0.8199  -21.9501 C   0  0  0  0  0  0  0  0  0  0  0  0
   -4.6219   -0.0874  -21.6822 C   0  0  0  0  0  0  0  0  0  0  0  0
   -5.1369   -0.2454  -20.3662 C   0  0  0  0  0  0  0  0  0  0  0  0
   -6.3566   -3.3317  -21.3182 C   0  0  0  0  0  0  0  0  0  0  0  0
   -7.4773   -3.9078  -22.1987 C   0  0  0  0  0  0  0  0  0  0  0  0
   -7.0668   -5.0314  -23.1277 C   0  0  0  0  0  0  0  0  0  0  0  0
   -7.9553   -5.3155  -21.9466 C   0  0  0  0  0  0  0  0  0  0  0  0
   -9.7325   -2.7057  -22.9698 C   0  0  0  0  0  0  0  0  0  0  0  0
  -10.5633   -3.5190  -22.1998 C   0  0  0  0  0  0  0  0  0  0  0  0
  -11.9345   -3.4710  -22.3617 C   0  0  0  0  0  0  0  0  0  0  0  0
  -12.9295   -4.5606  -21.4377 Cl  0  0  0  0  0  0  0  0  0  0  0  0
  -12.5331   -2.5803  -23.2514 C   0  0  0  0  0  0  0  0  0  0  0  0
  -11.7209   -1.7352  -23.9832 C   0  0  0  0  0  0  0  0  0  0  0  0
  -10.3351   -1.7942  -23.8590 C   0  0  0  0  0  0  0  0  0  0  0  0
   -9.5152   -0.8341  -24.6765 C   0  0  0  0  0  0  0  0  0  0  0  0
  -10.0026    0.1238  -25.2646 O   0  0  0  0  0  0  0  0  0  0  0  0
   -6.8617    3.5490  -23.8447 H   0  0  0  0  0  0  0  0  0  0  0  0
   -7.2939    2.8118  -22.2720 H   0  0  0  0  0  0  0  0  0  0  0  0
   -5.6927    2.5114  -22.9956 H   0  0  0  0  0  0  0  0  0  0  0  0
   -8.0645    0.9915  -23.3940 H   0  0  0  0  0  0  0  0  0  0  0  0
   -6.4437   -0.8468  -25.8378 H   0  0  0  0  0  0  0  0  0  0  0  0
   -7.8843   -0.0793  -26.5151 H   0  0  0  0  0  0  0  0  0  0  0  0
   -7.7134   -3.1225  -24.8112 H   0  0  0  0  0  0  0  0  0  0  0  0
   -6.5236   -2.1046  -23.9665 H   0  0  0  0  0  0  0  0  0  0  0  0
   -7.3301   -1.9333  -18.3907 H   0  0  0  0  0  0  0  0  0  0  0  0
   -4.6543    0.9614  -17.1932 H   0  0  0  0  0  0  0  0  0  0  0  0
   -3.1602    2.1003  -18.8259 H   0  0  0  0  0  0  0  0  0  0  0  0
   -2.3254    2.3548  -21.1525 H   0  0  0  0  0  0  0  0  0  0  0  0
   -3.2715    0.9502  -22.9714 H   0  0  0  0  0  0  0  0  0  0  0  0
   -5.0311   -0.6964  -22.4826 H   0  0  0  0  0  0  0  0  0  0  0  0
   -5.4302   -3.2842  -21.9165 H   0  0  0  0  0  0  0  0  0  0  0  0
   -6.1561   -3.9199  -20.4197 H   0  0  0  0  0  0  0  0  0  0  0  0
   -6.0281   -5.3678  -23.1431 H   0  0  0  0  0  0  0  0  0  0  0  0
   -7.5349   -5.0881  -24.1091 H   0  0  0  0  0  0  0  0  0  0  0  0
   -8.9923   -5.5709  -22.1382 H   0  0  0  0  0  0  0  0  0  0  0  0
   -7.5417   -5.8340  -21.0790 H   0  0  0  0  0  0  0  0  0  0  0  0
  -10.1471   -4.1761  -21.4517 H   0  0  0  0  0  0  0  0  0  0  0  0
  -13.6126   -2.5398  -23.3402 H   0  0  0  0  0  0  0  0  0  0  0  0
  -12.1300   -0.9885  -24.6535 H   0  0  0  0  0  0  0  0  0  0  0  0
  1  2  1  0
  2  3  1  0
  3  4  2  0
  3  5  1  0
  5  6  1  0
  6  7  1  0
  8  7  1  6
  8  9  1  0
  9 10  2  0
  9 11  1  0
 11 12  1  0
 12 13  2  0
 13 14  1  0
 14 15  2  0
 15 16  1  0
 16 17  2  0
 17 18  1  0
 18 19  2  0
 19 20  1  0
 20 21  2  0
 11 22  1  0
 22 23  1  0
 23 24  1  0
 24 25  1  0
  8 26  1  0
 26 27  2  0
 27 28  1  0
 28 29  1  0
 28 30  2  0
 30 31  1  0
 31 32  2  0
 32 33  1  0
 33 34  2  0
 33  6  1  0
 23  8  1  0
 32 26  1  0
 21 12  1  0
 25 23  1  0
 21 16  1  0
  1 35  1  0
  1 36  1  0
  1 37  1  0
  2 38  1  0
  5 39  1  0
  5 40  1  0
  7 41  1  0
  7 42  1  0
 13 43  1  0
 15 44  1  0
 17 45  1  0
 18 46  1  0
 19 47  1  0
 20 48  1  0
 22 49  1  0
 22 50  1  0
 24 51  1  0
 24 52  1  0
 25 53  1  0
 25 54  1  0
 27 55  1  0
 30 56  1  0
 31 57  1  0
M  END
>  <RMSD>  (47) 
0.06153311057976551

$$$$

     RDKit          3D

 57 62  0  0  0  0  0  0  0  0999 V2000
   -7.2328   -5.0332  -23.0360 C   0  0  0  0  0  0  0  0  0  0  0  0
   -7.5626   -3.8778  -22.1002 C   0  0  1  0  0  0  0  0  0  0  0  0
   -6.3547   -3.2983  -21.3559 C   0  0  0  0  0  0  0  0  0  0  0  0
   -6.8119   -1.9713  -20.9782 N   0  0  0  0  0  0  0  0  0  0  0  0
   -6.1746   -1.1563  -20.0044 C   0  0  0  0  0  0  0  0  0  0  0  0
   -6.5444   -1.2460  -18.6857 C   0  0  0  0  0  0  0  0  0  0  0  0
   -6.0139   -0.5021  -17.6818 N   0  0  0  0  0  0  0  0  0  0  0  0
   -5.0730    0.3597  -17.9987 C   0  0  0  0  0  0  0  0  0  0  0  0
   -4.5725    0.5392  -19.3211 C   0  0  0  0  0  0  0  0  0  0  0  0
   -3.5582    1.4898  -19.6314 C   0  0  0  0  0  0  0  0  0  0  0  0
   -3.1060    1.6258  -20.9154 C   0  0  0  0  0  0  0  0  0  0  0  0
   -3.6318    0.8178  -21.9472 C   0  0  0  0  0  0  0  0  0  0  0  0
   -4.6273   -0.0892  -21.6832 C   0  0  0  0  0  0  0  0  0  0  0  0
   -5.1247   -0.2505  -20.3606 C   0  0  0  0  0  0  0  0  0  0  0  0
   -7.8822   -1.5251  -21.7294 C   0  0  0  0  0  0  0  0  0  0  0  0
   -8.4144   -0.4464  -21.6010 O   0  0  0  0  0  0  0  0  0  0  0  0
   -8.2346   -2.6370  -22.7534 C   0  0  1  0  0  0  0  0  0  0  0  0
   -7.5897   -2.2816  -24.1203 C   0  0  0  0  0  0  0  0  0  0  0  0
   -8.1665   -1.0798  -24.6974 N   0  0  0  0  0  0  0  0  0  0  0  0
   -7.3275   -0.2829  -25.5701 C   0  0  0  0  0  0  0  0  0  0  0  0
   -6.6762    0.8714  -24.8848 C   0  0  0  0  0  0  0  0  0  0  0  0
   -5.4419    1.3740  -25.1080 C   0  0  0  0  0  0  0  0  0  0  0  0
   -5.3166    2.4844  -24.3046 N   0  0  0  0  0  0  0  0  0  0  0  0
   -6.4394    2.6449  -23.5941 C   0  0  0  0  0  0  0  0  0  0  0  0
   -7.2777    1.6597  -23.9299 N   0  0  0  0  0  0  0  0  0  0  0  0
   -9.5051   -0.8179  -24.6490 C   0  0  0  0  0  0  0  0  0  0  0  0
   -9.9975    0.1497  -25.2167 O   0  0  0  0  0  0  0  0  0  0  0  0
  -10.3321   -1.7831  -23.8468 C   0  0  0  0  0  0  0  0  0  0  0  0
  -11.7214   -1.7243  -23.9721 C   0  0  0  0  0  0  0  0  0  0  0  0
  -12.5305   -2.5790  -23.2502 C   0  0  0  0  0  0  0  0  0  0  0  0
  -11.9202   -3.5023  -22.4102 C   0  0  0  0  0  0  0  0  0  0  0  0
  -12.6914   -4.3369  -21.6943 F   0  0  0  0  0  0  0  0  0  0  0  0
  -10.5511   -3.5894  -22.2637 C   0  0  0  0  0  0  0  0  0  0  0  0
   -9.7301   -2.7110  -22.9779 C   0  0  0  0  0  0  0  0  0  0  0  0
   -6.4504   -4.7542  -23.7485 H   0  0  0  0  0  0  0  0  0  0  0  0
   -8.1084   -5.3424  -23.6175 H   0  0  0  0  0  0  0  0  0  0  0  0
   -6.8758   -5.9036  -22.4774 H   0  0  0  0  0  0  0  0  0  0  0  0
   -8.2258   -4.2580  -21.3167 H   0  0  0  0  0  0  0  0  0  0  0  0
   -5.4710   -3.2732  -22.0169 H   0  0  0  0  0  0  0  0  0  0  0  0
   -6.0985   -3.8855  -20.4707 H   0  0  0  0  0  0  0  0  0  0  0  0
   -7.3300   -1.9403  -18.3931 H   0  0  0  0  0  0  0  0  0  0  0  0
   -4.6507    0.9666  -17.1941 H   0  0  0  0  0  0  0  0  0  0  0  0
   -3.1509    2.1119  -18.8380 H   0  0  0  0  0  0  0  0  0  0  0  0
   -2.3335    2.3533  -21.1522 H   0  0  0  0  0  0  0  0  0  0  0  0
   -3.2620    0.9275  -22.9618 H   0  0  0  0  0  0  0  0  0  0  0  0
   -5.0385   -0.6980  -22.4833 H   0  0  0  0  0  0  0  0  0  0  0  0
   -6.5121   -2.1253  -23.9914 H   0  0  0  0  0  0  0  0  0  0  0  0
   -7.7293   -3.1138  -24.8244 H   0  0  0  0  0  0  0  0  0  0  0  0
   -7.9304    0.0649  -26.4173 H   0  0  0  0  0  0  0  0  0  0  0  0
   -6.5358   -0.9208  -25.9803 H   0  0  0  0  0  0  0  0  0  0  0  0
   -4.6689    1.0328  -25.7869 H   0  0  0  0  0  0  0  0  0  0  0  0
   -4.4892    3.0641  -24.2588 H   0  0  0  0  0  0  0  0  0  0  0  0
   -6.6220    3.4300  -22.8729 H   0  0  0  0  0  0  0  0  0  0  0  0
   -8.2204    1.5325  -23.5777 H   0  0  0  0  0  0  0  0  0  0  0  0
  -12.1644   -0.9997  -24.6452 H   0  0  0  0  0  0  0  0  0  0  0  0
  -13.6136   -2.5400  -23.3197 H   0  0  0  0  0  0  0  0  0  0  0  0
  -10.1536   -4.3420  -21.5925 H   0  0  0  0  0  0  0  0  0  0  0  0
  1  2  1  0
  2  3  1  0
  3  4  1  0
  4  5  1  0
  5  6  2  0
  6  7  1  0
  7  8  2  0
  8  9  1  0
  9 10  2  0
 10 11  1  0
 11 12  2  0
 12 13  1  0
 13 14  2  0
  4 15  1  0
 15 16  2  0
 15 17  1  0
 17 18  1  6
 18 19  1  0
 19 20  1  0
 20 21  1  0
 21 22  2  0
 22 23  1  0
 23 24  2  0
 24 25  1  0
 19 26  1  0
 26 27  2  0
 26 28  1  0
 28 29  2  0
 29 30  1  0
 30 31  2  0
 31 32  1  0
 31 33  1  0
 33 34  2  0
 17  2  1  0
 25 21  1  0
 34 28  1  0
 14  5  1  0
 34 17  1  0
 14  9  1  0
  1 35  1  0
  1 36  1  0
  1 37  1  0
  2 38  1  1
  3 39  1  0
  3 40  1  0
  6 41  1  0
  8 42  1  0
 10 43  1  0
 11 44  1  0
 12 45  1  0
 13 46  1  0
 18 47  1  0
 18 48  1  0
 20 49  1  0
 20 50  1  0
 22 51  1  0
 23 52  1  0
 24 53  1  0
 25 54  1  0
 29 55  1  0
 30 56  1  0
 33 57  1  0
M  CHG  1  23   1
M  END
>  <RMSD>  (48) 
0.053328352103565034

$$$$

     RDKit          3D

 46 48  0  0  0  0  0  0  0  0999 V2000
   -8.7267   -1.0711  -27.8788 C   0  0  0  0  0  0  0  0  0  0  0  0
   -9.4885   -0.6457  -26.6151 C   0  0  0  0  0  0  0  0  0  0  0  0
   -9.2324    0.8346  -26.3218 C   0  0  0  0  0  0  0  0  0  0  0  0
   -9.1251   -1.5826  -25.4310 C   0  0  0  0  0  0  0  0  0  0  0  0
  -10.0939   -1.5263  -24.2270 C   0  0  0  0  0  0  0  0  0  0  0  0
   -9.7253   -2.5667  -23.1651 C   0  0  0  0  0  0  0  0  0  0  0  0
   -8.3259   -2.4832  -22.7609 N   0  0  0  0  0  0  0  0  0  0  0  0
   -8.0174   -1.8164  -21.5838 C   0  0  0  0  0  0  0  0  0  0  0  0
   -8.7843   -1.0281  -21.0614 O   0  0  0  0  0  0  0  0  0  0  0  0
   -6.6803   -2.2206  -20.9495 C   0  0  0  0  0  0  0  0  0  0  0  0
   -6.1019   -1.2350  -19.9775 C   0  0  0  0  0  0  0  0  0  0  0  0
   -6.5216   -1.2580  -18.6748 C   0  0  0  0  0  0  0  0  0  0  0  0
   -6.0368   -0.4701  -17.6794 N   0  0  0  0  0  0  0  0  0  0  0  0
   -5.0877    0.3762  -18.0105 C   0  0  0  0  0  0  0  0  0  0  0  0
   -4.5620    0.5232  -19.3228 C   0  0  0  0  0  0  0  0  0  0  0  0
   -3.5526    1.4721  -19.6309 C   0  0  0  0  0  0  0  0  0  0  0  0
   -3.1039    1.6178  -20.9129 C   0  0  0  0  0  0  0  0  0  0  0  0
   -3.6438    0.8215  -21.9460 C   0  0  0  0  0  0  0  0  0  0  0  0
   -4.6129   -0.1155  -21.6746 C   0  0  0  0  0  0  0  0  0  0  0  0
   -5.0971   -0.2929  -20.3510 C   0  0  0  0  0  0  0  0  0  0  0  0
   -7.4057   -2.5498  -23.8951 C   0  0  0  0  0  0  0  0  0  0  0  0
   -7.6935   -1.4124  -24.8801 C   0  0  0  0  0  0  0  0  0  0  0  0
   -7.6441   -1.0323  -27.7241 H   0  0  0  0  0  0  0  0  0  0  0  0
   -8.9705   -2.0960  -28.1725 H   0  0  0  0  0  0  0  0  0  0  0  0
   -8.9313   -0.4150  -28.7302 H   0  0  0  0  0  0  0  0  0  0  0  0
  -10.5639   -0.7852  -26.8111 H   0  0  0  0  0  0  0  0  0  0  0  0
   -9.5814    1.4908  -27.1285 H   0  0  0  0  0  0  0  0  0  0  0  0
   -8.1559    1.0140  -26.2162 H   0  0  0  0  0  0  0  0  0  0  0  0
   -9.7328    1.1543  -25.4020 H   0  0  0  0  0  0  0  0  0  0  0  0
   -9.1847   -2.5988  -25.8596 H   0  0  0  0  0  0  0  0  0  0  0  0
  -11.1335   -1.6996  -24.5408 H   0  0  0  0  0  0  0  0  0  0  0  0
  -10.0550   -0.5387  -23.7465 H   0  0  0  0  0  0  0  0  0  0  0  0
  -10.3492   -2.4318  -22.2821 H   0  0  0  0  0  0  0  0  0  0  0  0
   -9.9138   -3.5774  -23.5607 H   0  0  0  0  0  0  0  0  0  0  0  0
   -5.9475   -2.4880  -21.7131 H   0  0  0  0  0  0  0  0  0  0  0  0
   -6.8876   -3.1620  -20.4225 H   0  0  0  0  0  0  0  0  0  0  0  0
   -7.3030   -1.9600  -18.3764 H   0  0  0  0  0  0  0  0  0  0  0  0
   -4.6827    1.0089  -17.2193 H   0  0  0  0  0  0  0  0  0  0  0  0
   -3.1580    2.0905  -18.8284 H   0  0  0  0  0  0  0  0  0  0  0  0
   -2.3410    2.3558  -21.1493 H   0  0  0  0  0  0  0  0  0  0  0  0
   -3.2943    0.9579  -22.9638 H   0  0  0  0  0  0  0  0  0  0  0  0
   -5.0173   -0.7108  -22.4899 H   0  0  0  0  0  0  0  0  0  0  0  0
   -6.3731   -2.5014  -23.5504 H   0  0  0  0  0  0  0  0  0  0  0  0
   -7.5361   -3.5168  -24.4013 H   0  0  0  0  0  0  0  0  0  0  0  0
   -6.9203   -1.3879  -25.6602 H   0  0  0  0  0  0  0  0  0  0  0  0
   -7.6147   -0.4593  -24.3364 H   0  0  0  0  0  0  0  0  0  0  0  0
  1  2  1  0
  2  3  1  0
  2  4  1  0
  4  5  1  0
  5  6  1  0
  6  7  1  0
  7  8  1  0
  8  9  2  0
  8 10  1  0
 10 11  1  0
 11 12  2  0
 12 13  1  0
 13 14  2  0
 14 15  1  0
 15 16  2  0
 16 17  1  0
 17 18  2  0
 18 19  1  0
 19 20  2  0
  7 21  1  0
 21 22  1  0
 22  4  1  0
 20 11  1  0
 20 15  1  0
  1 23  1  0
  1 24  1  0
  1 25  1  0
  2 26  1  0
  3 27  1  0
  3 28  1  0
  3 29  1  0
  4 30  1  0
  5 31  1  0
  5 32  1  0
  6 33  1  0
  6 34  1  0
 10 35  1  0
 10 36  1  0
 12 37  1  0
 14 38  1  0
 16 39  1  0
 17 40  1  0
 18 41  1  0
 19 42  1  0
 21 43  1  0
 21 44  1  0
 22 45  1  0
 22 46  1  0
M  END
>  <RMSD>  (49) 
0.04245034601599454

$$$$

     RDKit          3D

 66 71  0  0  0  0  0  0  0  0999 V2000
   -6.7603    2.6549  -23.2097 C   0  0  0  0  0  0  0  0  0  0  0  0
   -7.3259    1.4823  -23.8506 N   0  0  0  0  0  0  0  0  0  0  0  0
   -6.8390    1.0556  -25.0352 C   0  0  0  0  0  0  0  0  0  0  0  0
   -6.0174    1.6843  -25.6878 O   0  0  0  0  0  0  0  0  0  0  0  0
   -7.3454   -0.2951  -25.5708 C   0  0  0  0  0  0  0  0  0  0  0  0
   -8.1594   -1.1025  -24.6890 N   0  0  0  0  0  0  0  0  0  0  0  0
   -7.5808   -2.3037  -24.1181 C   0  0  0  0  0  0  0  0  0  0  0  0
   -8.2291   -2.6557  -22.7612 C   0  0  2  0  0  0  0  0  0  0  0  0
   -7.8706   -1.5554  -21.7185 C   0  0  0  0  0  0  0  0  0  0  0  0
   -8.3900   -0.4648  -21.5785 O   0  0  0  0  0  0  0  0  0  0  0  0
   -6.8124   -2.0049  -20.9615 N   0  0  0  0  0  0  0  0  0  0  0  0
   -6.1787   -1.1637  -20.0026 C   0  0  0  0  0  0  0  0  0  0  0  0
   -6.5501   -1.2343  -18.6854 C   0  0  0  0  0  0  0  0  0  0  0  0
   -6.0107   -0.4921  -17.6821 N   0  0  0  0  0  0  0  0  0  0  0  0
   -5.0681    0.3609  -18.0057 C   0  0  0  0  0  0  0  0  0  0  0  0
   -4.5786    0.5450  -19.3328 C   0  0  0  0  0  0  0  0  0  0  0  0
   -3.5538    1.4836  -19.6336 C   0  0  0  0  0  0  0  0  0  0  0  0
   -3.0890    1.6193  -20.9150 C   0  0  0  0  0  0  0  0  0  0  0  0
   -3.6239    0.8198  -21.9506 C   0  0  0  0  0  0  0  0  0  0  0  0
   -4.6237   -0.0858  -21.6835 C   0  0  0  0  0  0  0  0  0  0  0  0
   -5.1409   -0.2423  -20.3677 C   0  0  0  0  0  0  0  0  0  0  0  0
   -6.3475   -3.3261  -21.3420 C   0  0  0  0  0  0  0  0  0  0  0  0
   -7.5504   -3.9025  -22.1190 C   0  0  2  0  0  0  0  0  0  0  0  0
   -7.1208   -5.0551  -23.0416 C   0  0  0  0  0  0  0  0  0  0  0  0
   -8.2120   -5.6587  -23.7803 N   0  0  0  0  0  0  0  0  0  0  0  0
   -8.0223   -6.6776  -24.6755 C   0  0  0  0  0  0  0  0  0  0  0  0
   -6.7497   -7.2196  -24.9901 C   0  0  0  0  0  0  0  0  0  0  0  0
   -6.5919   -8.1421  -25.9277 N   0  0  0  0  0  0  0  0  0  0  0  0
   -7.6890   -8.5656  -26.5644 C   0  0  0  0  0  0  0  0  0  0  0  0
   -8.9405   -8.0920  -26.2100 C   0  0  0  0  0  0  0  0  0  0  0  0
   -9.1135   -7.1589  -25.2717 N   0  0  0  0  0  0  0  0  0  0  0  0
   -9.7288   -2.7222  -22.9666 C   0  0  0  0  0  0  0  0  0  0  0  0
  -10.5543   -3.5904  -22.2424 C   0  0  0  0  0  0  0  0  0  0  0  0
  -11.9325   -3.5101  -22.3691 C   0  0  0  0  0  0  0  0  0  0  0  0
  -12.9483   -4.5700  -21.4293 Cl  0  0  0  0  0  0  0  0  0  0  0  0
  -12.5299   -2.5869  -23.2275 C   0  0  0  0  0  0  0  0  0  0  0  0
  -11.7187   -1.7406  -23.9584 C   0  0  0  0  0  0  0  0  0  0  0  0
  -10.3329   -1.8064  -23.8402 C   0  0  0  0  0  0  0  0  0  0  0  0
   -9.5061   -0.8591  -24.6628 C   0  0  0  0  0  0  0  0  0  0  0  0
   -9.9905    0.0953  -25.2594 O   0  0  0  0  0  0  0  0  0  0  0  0
   -6.8610    3.5430  -23.8437 H   0  0  0  0  0  0  0  0  0  0  0  0
   -7.2973    2.8079  -22.2702 H   0  0  0  0  0  0  0  0  0  0  0  0
   -5.6938    2.5047  -22.9941 H   0  0  0  0  0  0  0  0  0  0  0  0
   -8.0380    0.9564  -23.3617 H   0  0  0  0  0  0  0  0  0  0  0  0
   -7.9012   -0.0876  -26.4917 H   0  0  0  0  0  0  0  0  0  0  0  0
   -6.4445   -0.8557  -25.8359 H   0  0  0  0  0  0  0  0  0  0  0  0
   -6.5102   -2.1237  -23.9719 H   0  0  0  0  0  0  0  0  0  0  0  0
   -7.7077   -3.1569  -24.7980 H   0  0  0  0  0  0  0  0  0  0  0  0
   -7.3285   -1.9330  -18.3869 H   0  0  0  0  0  0  0  0  0  0  0  0
   -4.6528    0.9598  -17.1933 H   0  0  0  0  0  0  0  0  0  0  0  0
   -3.1659    2.0948  -18.8224 H   0  0  0  0  0  0  0  0  0  0  0  0
   -2.3243    2.3555  -21.1516 H   0  0  0  0  0  0  0  0  0  0  0  0
   -3.2712    0.9508  -22.9723 H   0  0  0  0  0  0  0  0  0  0  0  0
   -5.0311   -0.6956  -22.4833 H   0  0  0  0  0  0  0  0  0  0  0  0
   -5.4511   -3.2692  -21.9827 H   0  0  0  0  0  0  0  0  0  0  0  0
   -6.0683   -3.8964  -20.4515 H   0  0  0  0  0  0  0  0  0  0  0  0
   -8.2690   -4.2844  -21.3866 H   0  0  0  0  0  0  0  0  0  0  0  0
   -6.6343   -5.8432  -22.4409 H   0  0  0  0  0  0  0  0  0  0  0  0
   -6.3551   -4.6956  -23.7574 H   0  0  0  0  0  0  0  0  0  0  0  0
   -9.1847   -5.3821  -23.6963 H   0  0  0  0  0  0  0  0  0  0  0  0
   -5.8491   -6.8846  -24.4795 H   0  0  0  0  0  0  0  0  0  0  0  0
   -7.5475   -9.2779  -27.3732 H   0  0  0  0  0  0  0  0  0  0  0  0
   -9.8349   -8.4575  -26.7184 H   0  0  0  0  0  0  0  0  0  0  0  0
  -10.1339   -4.3216  -21.5620 H   0  0  0  0  0  0  0  0  0  0  0  0
  -13.6088   -2.5381  -23.3121 H   0  0  0  0  0  0  0  0  0  0  0  0
  -12.1139   -0.9926  -24.6354 H   0  0  0  0  0  0  0  0  0  0  0  0
  1  2  1  0
  2  3  1  0
  3  4  2  0
  3  5  1  0
  5  6  1  0
  6  7  1  0
  8  7  1  6
  8  9  1  0
  9 10  2  0
  9 11  1  0
 11 12  1  0
 12 13  2  0
 13 14  1  0
 14 15  2  0
 15 16  1  0
 16 17  2  0
 17 18  1  0
 18 19  2  0
 19 20  1  0
 20 21  2  0
 11 22  1  0
 22 23  1  0
 23 24  1  0
 24 25  1  0
 25 26  1  0
 26 27  2  0
 27 28  1  0
 28 29  2  0
 29 30  1  0
 30 31  2  0
  8 32  1  0
 32 33  2  0
 33 34  1  0
 34 35  1  0
 34 36  2  0
 36 37  1  0
 37 38  2  0
 38 39  1  0
 39 40  2  0
 39  6  1  0
 23  8  1  0
 31 26  1  0
 38 32  1  0
 21 12  1  0
 21 16  1  0
  1 41  1  0
  1 42  1  0
  1 43  1  0
  2 44  1  0
  5 45  1  0
  5 46  1  0
  7 47  1  0
  7 48  1  0
 13 49  1  0
 15 50  1  0
 17 51  1  0
 18 52  1  0
 19 53  1  0
 20 54  1  0
 22 55  1  0
 22 56  1  0
 23 57  1  1
 24 58  1  0
 24 59  1  0
 25 60  1  0
 27 61  1  0
 29 62  1  0
 30 63  1  0
 33 64  1  0
 36 65  1  0
 37 66  1  0
M  END
>  <RMSD>  (50) 
0.0624668385126598

$$$$

     RDKit          3D

 66 70  0  0  0  0  0  0  0  0999 V2000
   -6.7627    2.6526  -23.2209 C   0  0  0  0  0  0  0  0  0  0  0  0
   -7.3112    1.4751  -23.8585 N   0  0  0  0  0  0  0  0  0  0  0  0
   -6.8325    1.0654  -25.0528 C   0  0  0  0  0  0  0  0  0  0  0  0
   -6.0162    1.6984  -25.7054 O   0  0  0  0  0  0  0  0  0  0  0  0
   -7.3279   -0.2857  -25.5808 C   0  0  0  0  0  0  0  0  0  0  0  0
   -8.1470   -1.0808  -24.6881 N   0  0  0  0  0  0  0  0  0  0  0  0
   -7.5828   -2.2900  -24.1202 C   0  0  0  0  0  0  0  0  0  0  0  0
   -8.2306   -2.6356  -22.7540 C   0  0  2  0  0  0  0  0  0  0  0  0
   -7.8766   -1.5342  -21.7259 C   0  0  0  0  0  0  0  0  0  0  0  0
   -8.4083   -0.4494  -21.5928 O   0  0  0  0  0  0  0  0  0  0  0  0
   -6.8123   -1.9812  -20.9715 N   0  0  0  0  0  0  0  0  0  0  0  0
   -6.1756   -1.1563  -20.0041 C   0  0  0  0  0  0  0  0  0  0  0  0
   -6.5467   -1.2432  -18.6873 C   0  0  0  0  0  0  0  0  0  0  0  0
   -6.0147   -0.5008  -17.6825 N   0  0  0  0  0  0  0  0  0  0  0  0
   -5.0748    0.3596  -18.0000 C   0  0  0  0  0  0  0  0  0  0  0  0
   -4.5718    0.5407  -19.3216 C   0  0  0  0  0  0  0  0  0  0  0  0
   -3.5538    1.4878  -19.6297 C   0  0  0  0  0  0  0  0  0  0  0  0
   -3.0985    1.6213  -20.9139 C   0  0  0  0  0  0  0  0  0  0  0  0
   -3.6272    0.8176  -21.9512 C   0  0  0  0  0  0  0  0  0  0  0  0
   -4.6207   -0.0908  -21.6824 C   0  0  0  0  0  0  0  0  0  0  0  0
   -5.1273   -0.2483  -20.3615 C   0  0  0  0  0  0  0  0  0  0  0  0
   -6.3475   -3.3045  -21.3515 C   0  0  0  0  0  0  0  0  0  0  0  0
   -7.5633   -3.8712  -22.1017 C   0  0  2  0  0  0  0  0  0  0  0  0
   -7.2631   -5.0433  -23.0333 C   0  0  0  0  0  0  0  0  0  0  0  0
   -6.9212   -6.1904  -22.2903 O   0  0  0  0  0  0  0  0  0  0  0  0
   -5.5449   -6.5383  -22.2904 C   0  0  0  0  0  0  0  0  0  0  0  0
   -5.2430   -7.2298  -20.9743 C   0  0  0  0  0  0  0  0  0  0  0  0
   -5.2175   -7.4230  -23.4838 C   0  0  0  0  0  0  0  0  0  0  0  0
   -9.7235   -2.7150  -22.9762 C   0  0  0  0  0  0  0  0  0  0  0  0
  -10.5467   -3.5947  -22.2634 C   0  0  0  0  0  0  0  0  0  0  0  0
  -11.9158   -3.5070  -22.4149 C   0  0  0  0  0  0  0  0  0  0  0  0
  -12.6913   -4.3392  -21.6988 F   0  0  0  0  0  0  0  0  0  0  0  0
  -12.5280   -2.5837  -23.2589 C   0  0  0  0  0  0  0  0  0  0  0  0
  -11.7119   -1.7303  -23.9784 C   0  0  0  0  0  0  0  0  0  0  0  0
  -10.3229   -1.7922  -23.8505 C   0  0  0  0  0  0  0  0  0  0  0  0
   -9.4928   -0.8366  -24.6601 C   0  0  0  0  0  0  0  0  0  0  0  0
   -9.9749    0.1232  -25.2454 O   0  0  0  0  0  0  0  0  0  0  0  0
   -7.2926    2.8069  -22.2784 H   0  0  0  0  0  0  0  0  0  0  0  0
   -6.8670    3.5431  -23.8492 H   0  0  0  0  0  0  0  0  0  0  0  0
   -5.6991    2.5099  -22.9991 H   0  0  0  0  0  0  0  0  0  0  0  0
   -8.1048    1.0228  -23.4285 H   0  0  0  0  0  0  0  0  0  0  0  0
   -7.8644   -0.1089  -26.5193 H   0  0  0  0  0  0  0  0  0  0  0  0
   -6.4310   -0.8600  -25.8360 H   0  0  0  0  0  0  0  0  0  0  0  0
   -7.7182   -3.1287  -24.8200 H   0  0  0  0  0  0  0  0  0  0  0  0
   -6.5072   -2.1327  -23.9842 H   0  0  0  0  0  0  0  0  0  0  0  0
   -7.3307   -1.9367  -18.3905 H   0  0  0  0  0  0  0  0  0  0  0  0
   -4.6566    0.9651  -17.1926 H   0  0  0  0  0  0  0  0  0  0  0  0
   -3.1541    2.1093  -18.8297 H   0  0  0  0  0  0  0  0  0  0  0  0
   -2.3302    2.3512  -21.1556 H   0  0  0  0  0  0  0  0  0  0  0  0
   -3.2750    0.9425  -22.9734 H   0  0  0  0  0  0  0  0  0  0  0  0
   -5.0339   -0.7000  -22.4826 H   0  0  0  0  0  0  0  0  0  0  0  0
   -5.4566   -3.2737  -22.0052 H   0  0  0  0  0  0  0  0  0  0  0  0
   -6.0806   -3.8870  -20.4652 H   0  0  0  0  0  0  0  0  0  0  0  0
   -8.2290   -4.2577  -21.3301 H   0  0  0  0  0  0  0  0  0  0  0  0
   -6.4543   -4.7677  -23.7288 H   0  0  0  0  0  0  0  0  0  0  0  0
   -8.1515   -5.2755  -23.6412 H   0  0  0  0  0  0  0  0  0  0  0  0
   -4.9456   -5.6188  -22.3482 H   0  0  0  0  0  0  0  0  0  0  0  0
   -5.4863   -6.5789  -20.1288 H   0  0  0  0  0  0  0  0  0  0  0  0
   -4.1788   -7.4856  -20.9173 H   0  0  0  0  0  0  0  0  0  0  0  0
   -5.8241   -8.1523  -20.8778 H   0  0  0  0  0  0  0  0  0  0  0  0
   -5.4310   -6.9159  -24.4292 H   0  0  0  0  0  0  0  0  0  0  0  0
   -4.1590   -7.7027  -23.4746 H   0  0  0  0  0  0  0  0  0  0  0  0
   -5.8209   -8.3344  -23.4459 H   0  0  0  0  0  0  0  0  0  0  0  0
  -10.1447   -4.3482  -21.5922 H   0  0  0  0  0  0  0  0  0  0  0  0
  -13.6130   -2.5466  -23.3263 H   0  0  0  0  0  0  0  0  0  0  0  0
  -12.1439   -1.0016  -24.6548 H   0  0  0  0  0  0  0  0  0  0  0  0
  1  2  1  0
  2  3  1  0
  3  4  2  0
  3  5  1  0
  5  6  1  0
  6  7  1  0
  8  7  1  6
  8  9  1  0
  9 10  2  0
  9 11  1  0
 11 12  1  0
 12 13  2  0
 13 14  1  0
 14 15  2  0
 15 16  1  0
 16 17  2  0
 17 18  1  0
 18 19  2  0
 19 20  1  0
 20 21  2  0
 11 22  1  0
 22 23  1  0
 23 24  1  0
 24 25  1  0
 25 26  1  0
 26 27  1  0
 26 28  1  0
  8 29  1  0
 29 30  2  0
 30 31  1  0
 31 32  1  0
 31 33  2  0
 33 34  1  0
 34 35  2  0
 35 36  1  0
 36 37  2  0
 36  6  1  0
 23  8  1  0
 35 29  1  0
 21 12  1  0
 21 16  1  0
  1 38  1  0
  1 39  1  0
  1 40  1  0
  2 41  1  0
  5 42  1  0
  5 43  1  0
  7 44  1  0
  7 45  1  0
 13 46  1  0
 15 47  1  0
 17 48  1  0
 18 49  1  0
 19 50  1  0
 20 51  1  0
 22 52  1  0
 22 53  1  0
 23 54  1  1
 24 55  1  0
 24 56  1  0
 26 57  1  0
 27 58  1  0
 27 59  1  0
 27 60  1  0
 28 61  1  0
 28 62  1  0
 28 63  1  0
 30 64  1  0
 33 65  1  0
 34 66  1  0
M  END
>  <RMSD>  (51) 
0.05669430302388302

$$$$

     RDKit          3D

 66 71  0  0  0  0  0  0  0  0999 V2000
   -7.3278   -5.0271  -23.0341 C   0  0  0  0  0  0  0  0  0  0  0  0
   -7.5935   -3.8778  -22.0714 C   0  0  1  0  0  0  0  0  0  0  0  0
   -6.3404   -3.3118  -21.3837 C   0  0  0  0  0  0  0  0  0  0  0  0
   -6.8033   -2.0021  -20.9461 N   0  0  0  0  0  0  0  0  0  0  0  0
   -6.1568   -1.1778  -19.9904 C   0  0  0  0  0  0  0  0  0  0  0  0
   -6.5544   -1.2332  -18.6791 C   0  0  0  0  0  0  0  0  0  0  0  0
   -6.0204   -0.4844  -17.6800 N   0  0  0  0  0  0  0  0  0  0  0  0
   -5.0688    0.3563  -18.0076 C   0  0  0  0  0  0  0  0  0  0  0  0
   -4.5634    0.5226  -19.3298 C   0  0  0  0  0  0  0  0  0  0  0  0
   -3.5541    1.4753  -19.6332 C   0  0  0  0  0  0  0  0  0  0  0  0
   -3.1010    1.6223  -20.9135 C   0  0  0  0  0  0  0  0  0  0  0  0
   -3.6357    0.8312  -21.9531 C   0  0  0  0  0  0  0  0  0  0  0  0
   -4.6221   -0.0904  -21.6903 C   0  0  0  0  0  0  0  0  0  0  0  0
   -5.1141   -0.2688  -20.3663 C   0  0  0  0  0  0  0  0  0  0  0  0
   -7.9934   -1.6192  -21.5281 C   0  0  0  0  0  0  0  0  0  0  0  0
   -8.6565   -0.6573  -21.1858 O   0  0  0  0  0  0  0  0  0  0  0  0
   -8.3000   -2.6172  -22.6665 C   0  0  1  0  0  0  0  0  0  0  0  0
   -7.6006   -2.1872  -23.9898 C   0  0  0  0  0  0  0  0  0  0  0  0
   -8.2977   -1.1239  -24.6916 N   0  0  0  0  0  0  0  0  0  0  0  0
   -7.5826    0.0902  -25.0707 C   0  0  0  0  0  0  0  0  0  0  0  0
   -7.5068    1.1086  -23.9258 C   0  0  0  0  0  0  0  0  0  0  0  0
   -8.5767    2.1536  -24.0095 N   0  0  0  0  0  0  0  0  0  0  0  0
   -8.2393    3.3956  -23.2317 C   0  0  0  0  0  0  0  0  0  0  0  0
   -9.2890    4.4738  -23.4660 C   0  0  0  0  0  0  0  0  0  0  0  0
  -10.5951    4.0583  -23.1238 O   0  0  0  0  0  0  0  0  0  0  0  0
  -10.9613    2.8241  -23.7038 C   0  0  0  0  0  0  0  0  0  0  0  0
   -9.9372    1.7067  -23.5223 C   0  0  0  0  0  0  0  0  0  0  0  0
   -9.6391   -1.2176  -24.9329 C   0  0  0  0  0  0  0  0  0  0  0  0
  -10.2204   -0.5609  -25.7881 O   0  0  0  0  0  0  0  0  0  0  0  0
  -10.4114   -2.1049  -23.9917 C   0  0  0  0  0  0  0  0  0  0  0  0
  -11.7938   -2.1898  -24.1708 C   0  0  0  0  0  0  0  0  0  0  0  0
  -12.5885   -2.8469  -23.2496 C   0  0  0  0  0  0  0  0  0  0  0  0
  -11.9715   -3.4297  -22.1401 C   0  0  0  0  0  0  0  0  0  0  0  0
  -12.9567   -4.2123  -20.9321 Cl  0  0  0  0  0  0  0  0  0  0  0  0
  -10.6014   -3.3730  -21.9569 C   0  0  0  0  0  0  0  0  0  0  0  0
   -9.7877   -2.7278  -22.9007 C   0  0  0  0  0  0  0  0  0  0  0  0
   -6.9491   -5.9028  -22.4953 H   0  0  0  0  0  0  0  0  0  0  0  0
   -8.2485   -5.3128  -23.5557 H   0  0  0  0  0  0  0  0  0  0  0  0
   -6.5807   -4.7542  -23.7903 H   0  0  0  0  0  0  0  0  0  0  0  0
   -8.2222   -4.2526  -21.2540 H   0  0  0  0  0  0  0  0  0  0  0  0
   -5.4921   -3.2435  -22.0846 H   0  0  0  0  0  0  0  0  0  0  0  0
   -6.0149   -3.9276  -20.5381 H   0  0  0  0  0  0  0  0  0  0  0  0
   -7.3531   -1.9134  -18.3910 H   0  0  0  0  0  0  0  0  0  0  0  0
   -4.6541    0.9723  -17.2072 H   0  0  0  0  0  0  0  0  0  0  0  0
   -3.1642    2.0909  -18.8264 H   0  0  0  0  0  0  0  0  0  0  0  0
   -2.3322    2.3557  -21.1441 H   0  0  0  0  0  0  0  0  0  0  0  0
   -3.2720    0.9613  -22.9671 H   0  0  0  0  0  0  0  0  0  0  0  0
   -5.0341   -0.6798  -22.5052 H   0  0  0  0  0  0  0  0  0  0  0  0
   -7.5332   -3.0647  -24.6478 H   0  0  0  0  0  0  0  0  0  0  0  0
   -6.5833   -1.8391  -23.7863 H   0  0  0  0  0  0  0  0  0  0  0  0
   -6.5828   -0.1855  -25.4220 H   0  0  0  0  0  0  0  0  0  0  0  0
   -8.1057    0.5319  -25.9177 H   0  0  0  0  0  0  0  0  0  0  0  0
   -7.5897    0.5912  -22.9665 H   0  0  0  0  0  0  0  0  0  0  0  0
   -6.5511    1.6392  -23.9285 H   0  0  0  0  0  0  0  0  0  0  0  0
   -8.6705    2.4205  -25.0131 H   0  0  0  0  0  0  0  0  0  0  0  0
   -7.2556    3.7640  -23.5269 H   0  0  0  0  0  0  0  0  0  0  0  0
   -8.1873    3.1324  -22.1697 H   0  0  0  0  0  0  0  0  0  0  0  0
   -9.2359    4.7915  -24.5247 H   0  0  0  0  0  0  0  0  0  0  0  0
   -9.0664    5.3246  -22.8164 H   0  0  0  0  0  0  0  0  0  0  0  0
  -11.1704    2.9350  -24.7838 H   0  0  0  0  0  0  0  0  0  0  0  0
  -11.8945    2.5223  -23.2214 H   0  0  0  0  0  0  0  0  0  0  0  0
  -10.2767    0.8577  -24.1018 H   0  0  0  0  0  0  0  0  0  0  0  0
   -9.8540    1.3767  -22.4815 H   0  0  0  0  0  0  0  0  0  0  0  0
  -12.2316   -1.7085  -25.0401 H   0  0  0  0  0  0  0  0  0  0  0  0
  -13.6673   -2.8995  -23.3740 H   0  0  0  0  0  0  0  0  0  0  0  0
  -10.1750   -3.8281  -21.0675 H   0  0  0  0  0  0  0  0  0  0  0  0
  1  2  1  0
  2  3  1  0
  3  4  1  0
  4  5  1  0
  5  6  2  0
  6  7  1  0
  7  8  2  0
  8  9  1  0
  9 10  2  0
 10 11  1  0
 11 12  2  0
 12 13  1  0
 13 14  2  0
  4 15  1  0
 15 16  2  0
 15 17  1  0
 17 18  1  6
 18 19  1  0
 19 20  1  0
 20 21  1  0
 21 22  1  0
 22 23  1  0
 23 24  1  0
 24 25  1  0
 25 26  1  0
 26 27  1  0
 19 28  1  0
 28 29  2  0
 28 30  1  0
 30 31  2  0
 31 32  1  0
 32 33  2  0
 33 34  1  0
 33 35  1  0
 35 36  2  0
 17  2  1  0
 27 22  1  0
 36 30  1  0
 14  5  1  0
 36 17  1  0
 14  9  1  0
  1 37  1  0
  1 38  1  0
  1 39  1  0
  2 40  1  1
  3 41  1  0
  3 42  1  0
  6 43  1  0
  8 44  1  0
 10 45  1  0
 11 46  1  0
 12 47  1  0
 13 48  1  0
 18 49  1  0
 18 50  1  0
 20 51  1  0
 20 52  1  0
 21 53  1  0
 21 54  1  0
 22 55  1  0
 23 56  1  0
 23 57  1  0
 24 58  1  0
 24 59  1  0
 26 60  1  0
 26 61  1  0
 27 62  1  0
 27 63  1  0
 31 64  1  0
 32 65  1  0
 35 66  1  0
M  CHG  1  22   1
M  END
>  <RMSD>  (52) 
0.06762254224179051

$$$$

     RDKit          3D

 60 65  0  0  0  0  0  0  0  0999 V2000
   -9.1698   -6.4492  -23.1264 C   0  0  0  0  0  0  0  0  0  0  0  0
   -8.3866   -5.4491  -23.7229 O   0  0  0  0  0  0  0  0  0  0  0  0
   -7.2572   -5.0645  -22.9722 C   0  0  0  0  0  0  0  0  0  0  0  0
   -7.5674   -3.9116  -22.0204 C   0  0  1  0  0  0  0  0  0  0  0  0
   -6.3269   -3.3306  -21.3296 C   0  0  0  0  0  0  0  0  0  0  0  0
   -6.7774   -2.0005  -20.9513 N   0  0  0  0  0  0  0  0  0  0  0  0
   -6.1540   -1.1739  -19.9864 C   0  0  0  0  0  0  0  0  0  0  0  0
   -6.5490   -1.2381  -18.6738 C   0  0  0  0  0  0  0  0  0  0  0  0
   -6.0226   -0.4845  -17.6760 N   0  0  0  0  0  0  0  0  0  0  0  0
   -5.0754    0.3617  -18.0081 C   0  0  0  0  0  0  0  0  0  0  0  0
   -4.5786    0.5354  -19.3331 C   0  0  0  0  0  0  0  0  0  0  0  0
   -3.5616    1.4829  -19.6318 C   0  0  0  0  0  0  0  0  0  0  0  0
   -3.1030    1.6197  -20.9131 C   0  0  0  0  0  0  0  0  0  0  0  0
   -3.6394    0.8288  -21.9552 C   0  0  0  0  0  0  0  0  0  0  0  0
   -4.6353   -0.0818  -21.6950 C   0  0  0  0  0  0  0  0  0  0  0  0
   -5.1244   -0.2592  -20.3666 C   0  0  0  0  0  0  0  0  0  0  0  0
   -7.9563   -1.6118  -21.5541 C   0  0  0  0  0  0  0  0  0  0  0  0
   -8.5910   -0.6212  -21.2473 O   0  0  0  0  0  0  0  0  0  0  0  0
   -8.2799   -2.6690  -22.6407 C   0  0  1  0  0  0  0  0  0  0  0  0
   -7.6214   -2.3024  -23.9978 C   0  0  0  0  0  0  0  0  0  0  0  0
   -8.3244   -1.2282  -24.6720 N   0  0  0  0  0  0  0  0  0  0  0  0
   -7.6540    0.0024  -25.0841 C   0  0  0  0  0  0  0  0  0  0  0  0
   -8.0849    1.2389  -24.3087 C   0  0  0  0  0  0  0  0  0  0  0  0
   -7.3615    1.9879  -23.3497 C   0  0  0  0  0  0  0  0  0  0  0  0
   -8.0400    3.0474  -22.9162 N   0  0  0  0  0  0  0  0  0  0  0  0
   -9.2102    2.9602  -23.5633 N   0  0  0  0  0  0  0  0  0  0  0  0
   -9.2941    1.8996  -24.3935 C   0  0  0  0  0  0  0  0  0  0  0  0
   -9.6653   -1.3270  -24.9225 C   0  0  0  0  0  0  0  0  0  0  0  0
  -10.2228   -0.6668  -25.7917 O   0  0  0  0  0  0  0  0  0  0  0  0
  -10.4159   -2.1962  -23.9697 C   0  0  0  0  0  0  0  0  0  0  0  0
  -11.7985   -2.2654  -24.1287 C   0  0  0  0  0  0  0  0  0  0  0  0
  -12.5780   -2.8923  -23.1794 C   0  0  0  0  0  0  0  0  0  0  0  0
  -11.9440   -3.4515  -22.0712 C   0  0  0  0  0  0  0  0  0  0  0  0
  -12.9014   -4.2180  -20.8378 Cl  0  0  0  0  0  0  0  0  0  0  0  0
  -10.5691   -3.4184  -21.9146 C   0  0  0  0  0  0  0  0  0  0  0  0
   -9.7706   -2.7915  -22.8747 C   0  0  0  0  0  0  0  0  0  0  0  0
  -10.0465   -6.5922  -23.7587 H   0  0  0  0  0  0  0  0  0  0  0  0
   -9.5142   -6.1716  -22.1198 H   0  0  0  0  0  0  0  0  0  0  0  0
   -8.6193   -7.3991  -23.0704 H   0  0  0  0  0  0  0  0  0  0  0  0
   -6.4962   -4.7399  -23.6927 H   0  0  0  0  0  0  0  0  0  0  0  0
   -6.8420   -5.9198  -22.4134 H   0  0  0  0  0  0  0  0  0  0  0  0
   -8.2219   -4.2845  -21.2289 H   0  0  0  0  0  0  0  0  0  0  0  0
   -6.0265   -3.9052  -20.4484 H   0  0  0  0  0  0  0  0  0  0  0  0
   -5.4656   -3.2988  -22.0167 H   0  0  0  0  0  0  0  0  0  0  0  0
   -7.3419   -1.9263  -18.3899 H   0  0  0  0  0  0  0  0  0  0  0  0
   -4.6496    0.9703  -17.2111 H   0  0  0  0  0  0  0  0  0  0  0  0
   -3.1627    2.0895  -18.8208 H   0  0  0  0  0  0  0  0  0  0  0  0
   -2.3174    2.3366  -21.1398 H   0  0  0  0  0  0  0  0  0  0  0  0
   -3.2608    0.9472  -22.9680 H   0  0  0  0  0  0  0  0  0  0  0  0
   -5.0505   -0.6699  -22.5104 H   0  0  0  0  0  0  0  0  0  0  0  0
   -7.6392   -3.2034  -24.6281 H   0  0  0  0  0  0  0  0  0  0  0  0
   -6.5780   -1.9953  -23.8465 H   0  0  0  0  0  0  0  0  0  0  0  0
   -6.5840   -0.1676  -24.9349 H   0  0  0  0  0  0  0  0  0  0  0  0
   -7.8272    0.1515  -26.1576 H   0  0  0  0  0  0  0  0  0  0  0  0
   -6.3608    1.8200  -22.9616 H   0  0  0  0  0  0  0  0  0  0  0  0
   -9.9160    3.6747  -23.4154 H   0  0  0  0  0  0  0  0  0  0  0  0
  -10.1874    1.6916  -24.9660 H   0  0  0  0  0  0  0  0  0  0  0  0
  -12.2330   -1.7834  -24.9954 H   0  0  0  0  0  0  0  0  0  0  0  0
  -13.6594   -2.9068  -23.2586 H   0  0  0  0  0  0  0  0  0  0  0  0
  -10.1315   -3.8443  -21.0153 H   0  0  0  0  0  0  0  0  0  0  0  0
  1  2  1  0
  2  3  1  0
  3  4  1  0
  4  5  1  0
  5  6  1  0
  6  7  1  0
  7  8  2  0
  8  9  1  0
  9 10  2  0
 10 11  1  0
 11 12  2  0
 12 13  1  0
 13 14  2  0
 14 15  1  0
 15 16  2  0
  6 17  1  0
 17 18  2  0
 17 19  1  0
 19 20  1  6
 20 21  1  0
 21 22  1  0
 22 23  1  0
 23 24  1  0
 24 25  2  0
 25 26  1  0
 26 27  1  0
 21 28  1  0
 28 29  2  0
 28 30  1  0
 30 31  2  0
 31 32  1  0
 32 33  2  0
 33 34  1  0
 33 35  1  0
 35 36  2  0
 19  4  1  0
 27 23  2  0
 36 30  1  0
 16  7  1  0
 36 19  1  0
 16 11  1  0
  1 37  1  0
  1 38  1  0
  1 39  1  0
  3 40  1  0
  3 41  1  0
  4 42  1  1
  5 43  1  0
  5 44  1  0
  8 45  1  0
 10 46  1  0
 12 47  1  0
 13 48  1  0
 14 49  1  0
 15 50  1  0
 20 51  1  0
 20 52  1  0
 22 53  1  0
 22 54  1  0
 24 55  1  0
 26 56  1  0
 27 57  1  0
 31 58  1  0
 32 59  1  0
 35 60  1  0
M  END
>  <RMSD>  (53) 
0.06543797765987677

$$$$

     RDKit          3D

 40 43  0  0  0  0  0  0  0  0999 V2000
  -11.9878   -2.0354  -24.0716 C   0  0  0  0  0  0  0  0  0  0  0  0
  -10.6519   -1.4382  -23.6300 C   0  0  2  0  0  0  0  0  0  0  0  0
   -9.9135   -0.8750  -24.8505 C   0  0  0  0  0  0  0  0  0  0  0  0
   -8.5746   -0.5142  -24.5818 O   0  0  0  0  0  0  0  0  0  0  0  0
   -7.7985   -1.5956  -24.1285 C   0  0  0  0  0  0  0  0  0  0  0  0
   -8.3235   -2.1855  -22.8023 C   0  0  1  0  0  0  0  0  0  0  0  0
   -9.8171   -2.4995  -22.9170 C   0  0  0  0  0  0  0  0  0  0  0  0
   -7.5661   -3.3682  -22.4038 N   0  0  0  0  0  0  0  0  0  0  0  0
   -6.6849   -3.1537  -21.3767 C   0  0  0  0  0  0  0  0  0  0  0  0
   -5.8680   -3.9100  -20.8982 O   0  0  0  0  0  0  0  0  0  0  0  0
   -6.9275   -1.8339  -20.9618 N   0  0  0  0  0  0  0  0  0  0  0  0
   -6.1781   -1.1449  -19.9833 C   0  0  0  0  0  0  0  0  0  0  0  0
   -6.5183   -1.2767  -18.6663 C   0  0  0  0  0  0  0  0  0  0  0  0
   -5.9488   -0.5589  -17.6676 N   0  0  0  0  0  0  0  0  0  0  0  0
   -5.0297    0.3119  -18.0101 C   0  0  0  0  0  0  0  0  0  0  0  0
   -4.5738    0.5274  -19.3424 C   0  0  0  0  0  0  0  0  0  0  0  0
   -3.5834    1.4896  -19.6615 C   0  0  0  0  0  0  0  0  0  0  0  0
   -3.1593    1.6340  -20.9515 C   0  0  0  0  0  0  0  0  0  0  0  0
   -3.6857    0.8236  -21.9798 C   0  0  0  0  0  0  0  0  0  0  0  0
   -4.6497   -0.1096  -21.7019 C   0  0  0  0  0  0  0  0  0  0  0  0
   -5.1323   -0.2558  -20.3702 C   0  0  0  0  0  0  0  0  0  0  0  0
   -8.0113   -1.2535  -21.6233 C   0  0  0  0  0  0  0  0  0  0  0  0
   -8.5637   -0.2389  -21.2865 O   0  0  0  0  0  0  0  0  0  0  0  0
  -12.5970   -2.3475  -23.2159 H   0  0  0  0  0  0  0  0  0  0  0  0
  -11.8008   -2.9255  -24.6869 H   0  0  0  0  0  0  0  0  0  0  0  0
  -12.5647   -1.3247  -24.6739 H   0  0  0  0  0  0  0  0  0  0  0  0
  -10.8275   -0.6159  -22.9253 H   0  0  0  0  0  0  0  0  0  0  0  0
   -9.9688   -1.5796  -25.7067 H   0  0  0  0  0  0  0  0  0  0  0  0
  -10.4030    0.0505  -25.1709 H   0  0  0  0  0  0  0  0  0  0  0  0
   -7.7485   -2.4070  -24.8754 H   0  0  0  0  0  0  0  0  0  0  0  0
   -6.7871   -1.2167  -23.9647 H   0  0  0  0  0  0  0  0  0  0  0  0
   -9.9008   -3.4494  -23.4624 H   0  0  0  0  0  0  0  0  0  0  0  0
  -10.2136   -2.6314  -21.9040 H   0  0  0  0  0  0  0  0  0  0  0  0
   -7.4000   -4.1480  -23.0241 H   0  0  0  0  0  0  0  0  0  0  0  0
   -7.3017   -1.9804  -18.3894 H   0  0  0  0  0  0  0  0  0  0  0  0
   -4.5855    0.9009  -17.2103 H   0  0  0  0  0  0  0  0  0  0  0  0
   -3.1702    2.0993  -18.8652 H   0  0  0  0  0  0  0  0  0  0  0  0
   -2.3892    2.3577  -21.1910 H   0  0  0  0  0  0  0  0  0  0  0  0
   -3.3165    0.9337  -22.9934 H   0  0  0  0  0  0  0  0  0  0  0  0
   -5.0461   -0.7273  -22.5032 H   0  0  0  0  0  0  0  0  0  0  0  0
  1  2  1  0
  2  3  1  0
  3  4  1  0
  4  5  1  0
  5  6  1  0
  6  7  1  0
  6  8  1  1
  8  9  1  0
  9 10  2  0
  9 11  1  0
 11 12  1  0
 12 13  2  0
 13 14  1  0
 14 15  2  0
 15 16  1  0
 16 17  2  0
 17 18  1  0
 18 19  2  0
 19 20  1  0
 20 21  2  0
 11 22  1  0
 22 23  2  0
  7  2  1  0
 21 12  1  0
 22  6  1  0
 21 16  1  0
  1 24  1  0
  1 25  1  0
  1 26  1  0
  2 27  1  1
  3 28  1  0
  3 29  1  0
  5 30  1  0
  5 31  1  0
  7 32  1  0
  7 33  1  0
  8 34  1  0
 13 35  1  0
 15 36  1  0
 17 37  1  0
 18 38  1  0
 19 39  1  0
 20 40  1  0
M  END
>  <RMSD>  (54) 
0.15874831366553016

$$$$

     RDKit          3D

 59 63  0  0  0  0  0  0  0  0999 V2000
   -6.7652    2.6485  -23.2150 C   0  0  0  0  0  0  0  0  0  0  0  0
   -7.3288    1.4775  -23.8576 N   0  0  0  0  0  0  0  0  0  0  0  0
   -6.8422    1.0461  -25.0378 C   0  0  0  0  0  0  0  0  0  0  0  0
   -6.0235    1.6721  -25.6949 O   0  0  0  0  0  0  0  0  0  0  0  0
   -7.3473   -0.3084  -25.5628 C   0  0  0  0  0  0  0  0  0  0  0  0
   -8.1680   -1.1108  -24.6758 N   0  0  0  0  0  0  0  0  0  0  0  0
   -7.6021   -2.3114  -24.0904 C   0  0  0  0  0  0  0  0  0  0  0  0
   -8.2417   -2.6769  -22.7144 C   0  0  2  0  0  0  0  0  0  0  0  0
   -7.8766   -1.5659  -21.6980 C   0  0  0  0  0  0  0  0  0  0  0  0
   -8.4176   -0.4848  -21.5717 O   0  0  0  0  0  0  0  0  0  0  0  0
   -6.7875   -1.9834  -20.9711 N   0  0  0  0  0  0  0  0  0  0  0  0
   -6.1730   -1.1517  -19.9985 C   0  0  0  0  0  0  0  0  0  0  0  0
   -6.5505   -1.2335  -18.6832 C   0  0  0  0  0  0  0  0  0  0  0  0
   -6.0134   -0.4957  -17.6783 N   0  0  0  0  0  0  0  0  0  0  0  0
   -5.0705    0.3589  -18.0013 C   0  0  0  0  0  0  0  0  0  0  0  0
   -4.5785    0.5442  -19.3280 C   0  0  0  0  0  0  0  0  0  0  0  0
   -3.5565    1.4821  -19.6336 C   0  0  0  0  0  0  0  0  0  0  0  0
   -3.0948    1.6149  -20.9171 C   0  0  0  0  0  0  0  0  0  0  0  0
   -3.6265    0.8155  -21.9530 C   0  0  0  0  0  0  0  0  0  0  0  0
   -4.6253   -0.0897  -21.6839 C   0  0  0  0  0  0  0  0  0  0  0  0
   -5.1357   -0.2393  -20.3632 C   0  0  0  0  0  0  0  0  0  0  0  0
   -6.2643   -3.2673  -21.3846 C   0  0  0  0  0  0  0  0  0  0  0  0
   -7.4764   -3.9351  -22.0990 C   0  0  0  0  0  0  0  0  0  0  0  0
   -8.1877   -4.7347  -21.0065 C   0  0  0  0  0  0  0  0  0  0  0  0
   -7.0487   -4.9623  -23.1524 C   0  0  0  0  0  0  0  0  0  0  0  0
   -9.7539   -2.6993  -22.9363 C   0  0  0  0  0  0  0  0  0  0  0  0
  -10.6166   -3.5009  -22.1888 C   0  0  0  0  0  0  0  0  0  0  0  0
  -11.9851   -3.4574  -22.3678 C   0  0  0  0  0  0  0  0  0  0  0  0
  -12.9872   -4.5617  -21.4624 Cl  0  0  0  0  0  0  0  0  0  0  0  0
  -12.5660   -2.5802  -23.2764 C   0  0  0  0  0  0  0  0  0  0  0  0
  -11.7335   -1.7508  -24.0004 C   0  0  0  0  0  0  0  0  0  0  0  0
  -10.3487   -1.8136  -23.8497 C   0  0  0  0  0  0  0  0  0  0  0  0
   -9.5150   -0.8742  -24.6639 C   0  0  0  0  0  0  0  0  0  0  0  0
   -9.9963    0.0772  -25.2643 O   0  0  0  0  0  0  0  0  0  0  0  0
   -7.3023    2.8006  -22.2761 H   0  0  0  0  0  0  0  0  0  0  0  0
   -6.8671    3.5365  -23.8481 H   0  0  0  0  0  0  0  0  0  0  0  0
   -5.6992    2.4983  -22.9983 H   0  0  0  0  0  0  0  0  0  0  0  0
   -8.0447    0.9526  -23.3716 H   0  0  0  0  0  0  0  0  0  0  0  0
   -7.9009   -0.1054  -26.4857 H   0  0  0  0  0  0  0  0  0  0  0  0
   -6.4481   -0.8712  -25.8333 H   0  0  0  0  0  0  0  0  0  0  0  0
   -6.5320   -2.1354  -23.9485 H   0  0  0  0  0  0  0  0  0  0  0  0
   -7.7394   -3.1628  -24.7682 H   0  0  0  0  0  0  0  0  0  0  0  0
   -7.3285   -1.9357  -18.3911 H   0  0  0  0  0  0  0  0  0  0  0  0
   -4.6545    0.9590  -17.1910 H   0  0  0  0  0  0  0  0  0  0  0  0
   -3.1679    2.0941  -18.8257 H   0  0  0  0  0  0  0  0  0  0  0  0
   -2.3304    2.3504  -21.1534 H   0  0  0  0  0  0  0  0  0  0  0  0
   -3.2743    0.9459  -22.9750 H   0  0  0  0  0  0  0  0  0  0  0  0
   -5.0358   -0.6980  -22.4829 H   0  0  0  0  0  0  0  0  0  0  0  0
   -5.9226   -3.8182  -20.5020 H   0  0  0  0  0  0  0  0  0  0  0  0
   -5.3925   -3.1590  -22.0504 H   0  0  0  0  0  0  0  0  0  0  0  0
   -7.4501   -5.4024  -20.5528 H   0  0  0  0  0  0  0  0  0  0  0  0
   -8.9417   -5.3815  -21.4501 H   0  0  0  0  0  0  0  0  0  0  0  0
   -8.6229   -4.1084  -20.2233 H   0  0  0  0  0  0  0  0  0  0  0  0
   -7.9261   -5.2823  -23.7261 H   0  0  0  0  0  0  0  0  0  0  0  0
   -6.3032   -4.5618  -23.8451 H   0  0  0  0  0  0  0  0  0  0  0  0
   -6.6276   -5.8532  -22.6761 H   0  0  0  0  0  0  0  0  0  0  0  0
  -10.2174   -4.1492  -21.4409 H   0  0  0  0  0  0  0  0  0  0  0  0
  -13.6418   -2.5349  -23.3938 H   0  0  0  0  0  0  0  0  0  0  0  0
  -12.1077   -0.9919  -24.6765 H   0  0  0  0  0  0  0  0  0  0  0  0
  1  2  1  0
  2  3  1  0
  3  4  2  0
  3  5  1  0
  5  6  1  0
  6  7  1  0
  8  7  1  6
  8  9  1  0
  9 10  2  0
  9 11  1  0
 11 12  1  0
 12 13  2  0
 13 14  1  0
 14 15  2  0
 15 16  1  0
 16 17  2  0
 17 18  1  0
 18 19  2  0
 19 20  1  0
 20 21  2  0
 11 22  1  0
 22 23  1  0
 23 24  1  0
 23 25  1  0
  8 26  1  0
 26 27  2  0
 27 28  1  0
 28 29  1  0
 28 30  2  0
 30 31  1  0
 31 32  2  0
 32 33  1  0
 33 34  2  0
 33  6  1  0
 23  8  1  0
 32 26  1  0
 21 12  1  0
 21 16  1  0
  1 35  1  0
  1 36  1  0
  1 37  1  0
  2 38  1  0
  5 39  1  0
  5 40  1  0
  7 41  1  0
  7 42  1  0
 13 43  1  0
 15 44  1  0
 17 45  1  0
 18 46  1  0
 19 47  1  0
 20 48  1  0
 22 49  1  0
 22 50  1  0
 24 51  1  0
 24 52  1  0
 24 53  1  0
 25 54  1  0
 25 55  1  0
 25 56  1  0
 27 57  1  0
 30 58  1  0
 31 59  1  0
M  END
>  <RMSD>  (55) 
0.06031234494331198

$$$$

     RDKit          3D

 40 42  0  0  0  0  0  0  0  0999 V2000
  -10.0595    0.2545  -25.3566 C   0  0  0  0  0  0  0  0  0  0  0  0
   -9.3720   -0.5311  -24.2536 C   0  0  0  0  0  0  0  0  0  0  0  0
  -10.4390   -1.3509  -23.4931 C   0  0  0  0  0  0  0  0  0  0  0  0
   -9.8550   -2.6283  -22.8660 C   0  0  0  0  0  0  0  0  0  0  0  0
   -8.4308   -2.4865  -22.6023 N   0  0  0  0  0  0  0  0  0  0  0  0
   -8.0884   -1.9040  -21.4031 C   0  0  0  0  0  0  0  0  0  0  0  0
   -8.8912   -1.2818  -20.7331 O   0  0  0  0  0  0  0  0  0  0  0  0
   -6.6732   -2.2117  -20.9386 C   0  0  0  0  0  0  0  0  0  0  0  0
   -6.0980   -1.2293  -19.9733 C   0  0  0  0  0  0  0  0  0  0  0  0
   -6.5150   -1.2592  -18.6672 C   0  0  0  0  0  0  0  0  0  0  0  0
   -6.0324   -0.4789  -17.6696 N   0  0  0  0  0  0  0  0  0  0  0  0
   -5.0900    0.3760  -18.0030 C   0  0  0  0  0  0  0  0  0  0  0  0
   -4.5697    0.5277  -19.3216 C   0  0  0  0  0  0  0  0  0  0  0  0
   -3.5555    1.4701  -19.6322 C   0  0  0  0  0  0  0  0  0  0  0  0
   -3.1029    1.6153  -20.9178 C   0  0  0  0  0  0  0  0  0  0  0  0
   -3.6419    0.8233  -21.9552 C   0  0  0  0  0  0  0  0  0  0  0  0
   -4.6141   -0.1090  -21.6778 C   0  0  0  0  0  0  0  0  0  0  0  0
   -5.1007   -0.2859  -20.3516 C   0  0  0  0  0  0  0  0  0  0  0  0
   -7.6226   -2.3458  -23.8106 C   0  0  0  0  0  0  0  0  0  0  0  0
   -8.3670   -1.5128  -24.8695 C   0  0  0  0  0  0  0  0  0  0  0  0
  -10.5578   -0.4824  -25.9933 H   0  0  0  0  0  0  0  0  0  0  0  0
   -9.3698    0.8225  -25.9858 H   0  0  0  0  0  0  0  0  0  0  0  0
  -10.8090    0.9525  -24.9711 H   0  0  0  0  0  0  0  0  0  0  0  0
   -8.8608    0.1813  -23.5813 H   0  0  0  0  0  0  0  0  0  0  0  0
  -11.2495   -1.6289  -24.1875 H   0  0  0  0  0  0  0  0  0  0  0  0
  -10.8870   -0.7308  -22.7117 H   0  0  0  0  0  0  0  0  0  0  0  0
  -10.3614   -2.8659  -21.9275 H   0  0  0  0  0  0  0  0  0  0  0  0
   -9.9618   -3.4858  -23.5447 H   0  0  0  0  0  0  0  0  0  0  0  0
   -6.7379   -3.2001  -20.4555 H   0  0  0  0  0  0  0  0  0  0  0  0
   -6.0402   -2.3310  -21.8144 H   0  0  0  0  0  0  0  0  0  0  0  0
   -7.3001   -1.9570  -18.3819 H   0  0  0  0  0  0  0  0  0  0  0  0
   -4.7002    1.0069  -17.2045 H   0  0  0  0  0  0  0  0  0  0  0  0
   -3.1571    2.0849  -18.8297 H   0  0  0  0  0  0  0  0  0  0  0  0
   -2.3386    2.3521  -21.1539 H   0  0  0  0  0  0  0  0  0  0  0  0
   -3.2867    0.9540  -22.9758 H   0  0  0  0  0  0  0  0  0  0  0  0
   -5.0138   -0.7092  -22.4924 H   0  0  0  0  0  0  0  0  0  0  0  0
   -6.6687   -1.8781  -23.5475 H   0  0  0  0  0  0  0  0  0  0  0  0
   -7.4070   -3.3357  -24.2241 H   0  0  0  0  0  0  0  0  0  0  0  0
   -8.9334   -2.1955  -25.5247 H   0  0  0  0  0  0  0  0  0  0  0  0
   -7.6518   -0.9800  -25.5088 H   0  0  0  0  0  0  0  0  0  0  0  0
  1  2  1  0
  2  3  1  0
  3  4  1  0
  4  5  1  0
  5  6  1  0
  6  7  2  0
  6  8  1  0
  8  9  1  0
  9 10  2  0
 10 11  1  0
 11 12  2  0
 12 13  1  0
 13 14  2  0
 14 15  1  0
 15 16  2  0
 16 17  1  0
 17 18  2  0
  5 19  1  0
 19 20  1  0
 20  2  1  0
 18  9  1  0
 18 13  1  0
  1 21  1  0
  1 22  1  0
  1 23  1  0
  2 24  1  0
  3 25  1  0
  3 26  1  0
  4 27  1  0
  4 28  1  0
  8 29  1  0
  8 30  1  0
 10 31  1  0
 12 32  1  0
 14 33  1  0
 15 34  1  0
 16 35  1  0
 17 36  1  0
 19 37  1  0
 19 38  1  0
 20 39  1  0
 20 40  1  0
M  END
>  <RMSD>  (56) 
0.04031743548536566

$$$$

     RDKit          3D

 43 45  0  0  0  0  0  0  0  0999 V2000
   -9.4645   -0.8245  -25.7194 C   0  0  0  0  0  0  0  0  0  0  0  0
   -9.7679   -2.2510  -25.2257 C   0  0  0  0  0  0  0  0  0  0  0  0
  -10.6361   -3.0023  -26.2503 C   0  0  0  0  0  0  0  0  0  0  0  0
  -10.5538   -2.1525  -23.8904 C   0  0  0  0  0  0  0  0  0  0  0  0
   -9.8771   -2.8962  -22.7529 C   0  0  0  0  0  0  0  0  0  0  0  0
   -8.4816   -2.4897  -22.6280 N   0  0  0  0  0  0  0  0  0  0  0  0
   -8.1026   -1.9156  -21.4385 C   0  0  0  0  0  0  0  0  0  0  0  0
   -8.8970   -1.3109  -20.7392 O   0  0  0  0  0  0  0  0  0  0  0  0
   -6.6742   -2.2088  -20.9696 C   0  0  0  0  0  0  0  0  0  0  0  0
   -6.1051   -1.2282  -19.9824 C   0  0  0  0  0  0  0  0  0  0  0  0
   -6.5164   -1.2596  -18.6728 C   0  0  0  0  0  0  0  0  0  0  0  0
   -6.0329   -0.4747  -17.6738 N   0  0  0  0  0  0  0  0  0  0  0  0
   -5.0877    0.3786  -18.0023 C   0  0  0  0  0  0  0  0  0  0  0  0
   -4.5764    0.5392  -19.3225 C   0  0  0  0  0  0  0  0  0  0  0  0
   -3.5597    1.4790  -19.6320 C   0  0  0  0  0  0  0  0  0  0  0  0
   -3.1035    1.6096  -20.9142 C   0  0  0  0  0  0  0  0  0  0  0  0
   -3.6430    0.8186  -21.9521 C   0  0  0  0  0  0  0  0  0  0  0  0
   -4.6127   -0.1113  -21.6774 C   0  0  0  0  0  0  0  0  0  0  0  0
   -5.1036   -0.2832  -20.3516 C   0  0  0  0  0  0  0  0  0  0  0  0
   -7.6296   -2.5786  -23.8175 C   0  0  0  0  0  0  0  0  0  0  0  0
   -8.4657   -3.0497  -25.0100 C   0  0  0  0  0  0  0  0  0  0  0  0
   -8.9709   -0.8430  -26.6986 H   0  0  0  0  0  0  0  0  0  0  0  0
  -10.3951   -0.2495  -25.8119 H   0  0  0  0  0  0  0  0  0  0  0  0
   -8.8141   -0.2701  -25.0311 H   0  0  0  0  0  0  0  0  0  0  0  0
  -10.2723   -2.9105  -27.2825 H   0  0  0  0  0  0  0  0  0  0  0  0
  -10.6716   -4.0679  -26.0217 H   0  0  0  0  0  0  0  0  0  0  0  0
  -11.6616   -2.6159  -26.2116 H   0  0  0  0  0  0  0  0  0  0  0  0
  -10.6379   -1.1040  -23.5838 H   0  0  0  0  0  0  0  0  0  0  0  0
  -11.5778   -2.5253  -24.0117 H   0  0  0  0  0  0  0  0  0  0  0  0
  -10.3624   -2.6487  -21.8075 H   0  0  0  0  0  0  0  0  0  0  0  0
   -9.9367   -3.9845  -22.9012 H   0  0  0  0  0  0  0  0  0  0  0  0
   -6.0142   -2.3608  -21.8265 H   0  0  0  0  0  0  0  0  0  0  0  0
   -6.7470   -3.1919  -20.4760 H   0  0  0  0  0  0  0  0  0  0  0  0
   -7.2944   -1.9674  -18.3796 H   0  0  0  0  0  0  0  0  0  0  0  0
   -4.6879    1.0028  -17.2006 H   0  0  0  0  0  0  0  0  0  0  0  0
   -3.1535    2.0906  -18.8279 H   0  0  0  0  0  0  0  0  0  0  0  0
   -2.3403    2.3469  -21.1523 H   0  0  0  0  0  0  0  0  0  0  0  0
   -3.2856    0.9501  -22.9726 H   0  0  0  0  0  0  0  0  0  0  0  0
   -5.0140   -0.7093  -22.4934 H   0  0  0  0  0  0  0  0  0  0  0  0
   -6.8079   -3.2909  -23.6551 H   0  0  0  0  0  0  0  0  0  0  0  0
   -7.1599   -1.6046  -24.0375 H   0  0  0  0  0  0  0  0  0  0  0  0
   -8.7303   -4.1001  -24.8301 H   0  0  0  0  0  0  0  0  0  0  0  0
   -7.8690   -3.0305  -25.9282 H   0  0  0  0  0  0  0  0  0  0  0  0
  1  2  1  0
  2  3  1  0
  2  4  1  0
  4  5  1  0
  5  6  1  0
  6  7  1  0
  7  8  2  0
  7  9  1  0
  9 10  1  0
 10 11  2  0
 11 12  1  0
 12 13  2  0
 13 14  1  0
 14 15  2  0
 15 16  1  0
 16 17  2  0
 17 18  1  0
 18 19  2  0
  6 20  1  0
 20 21  1  0
 21  2  1  0
 19 10  1  0
 19 14  1  0
  1 22  1  0
  1 23  1  0
  1 24  1  0
  3 25  1  0
  3 26  1  0
  3 27  1  0
  4 28  1  0
  4 29  1  0
  5 30  1  0
  5 31  1  0
  9 32  1  0
  9 33  1  0
 11 34  1  0
 13 35  1  0
 15 36  1  0
 16 37  1  0
 17 38  1  0
 18 39  1  0
 20 40  1  0
 20 41  1  0
 21 42  1  0
 21 43  1  0
M  END
>  <RMSD>  (57) 
0.03633758726431307

$$$$

     RDKit          3D

 60 65  0  0  0  0  0  0  0  0999 V2000
   -6.8346    2.6844  -22.8108 C   0  0  0  0  0  0  0  0  0  0  0  0
   -7.4038    1.6052  -23.5955 N   0  0  0  0  0  0  0  0  0  0  0  0
   -6.9247    1.3133  -24.8255 C   0  0  0  0  0  0  0  0  0  0  0  0
   -6.1390    2.0355  -25.4215 O   0  0  0  0  0  0  0  0  0  0  0  0
   -7.3661    0.0089  -25.4674 C   0  0  0  0  0  0  0  0  0  0  0  0
   -8.1765   -0.9061  -24.7017 N   0  0  0  0  0  0  0  0  0  0  0  0
   -7.5729   -2.1044  -24.1393 C   0  0  0  0  0  0  0  0  0  0  0  0
   -8.2360   -2.5208  -22.7963 C   0  0  2  0  0  0  0  0  0  0  0  0
   -7.9056   -1.4719  -21.7040 C   0  0  0  0  0  0  0  0  0  0  0  0
   -8.4539   -0.4061  -21.5038 O   0  0  0  0  0  0  0  0  0  0  0  0
   -6.8358   -1.9444  -20.9747 N   0  0  0  0  0  0  0  0  0  0  0  0
   -6.1817   -1.1420  -20.0020 C   0  0  0  0  0  0  0  0  0  0  0  0
   -6.5458   -1.2441  -18.6850 C   0  0  0  0  0  0  0  0  0  0  0  0
   -6.0054   -0.5132  -17.6781 N   0  0  0  0  0  0  0  0  0  0  0  0
   -5.0699    0.3512  -17.9981 C   0  0  0  0  0  0  0  0  0  0  0  0
   -4.5711    0.5409  -19.3204 C   0  0  0  0  0  0  0  0  0  0  0  0
   -3.5595    1.4938  -19.6327 C   0  0  0  0  0  0  0  0  0  0  0  0
   -3.1040    1.6242  -20.9165 C   0  0  0  0  0  0  0  0  0  0  0  0
   -3.6216    0.8107  -21.9531 C   0  0  0  0  0  0  0  0  0  0  0  0
   -4.6102   -0.1024  -21.6795 C   0  0  0  0  0  0  0  0  0  0  0  0
   -5.1250   -0.2483  -20.3604 C   0  0  0  0  0  0  0  0  0  0  0  0
   -6.3540   -3.2400  -21.4225 C   0  0  0  0  0  0  0  0  0  0  0  0
   -7.5620   -3.7831  -22.1944 C   0  0  2  0  0  0  0  0  0  0  0  0
   -7.2392   -4.9110  -23.1652 C   0  0  0  0  0  0  0  0  0  0  0  0
   -9.7285   -2.6185  -23.0288 C   0  0  0  0  0  0  0  0  0  0  0  0
  -10.5445   -3.5153  -22.3229 C   0  0  0  0  0  0  0  0  0  0  0  0
  -11.9207   -3.4558  -22.4564 C   0  0  0  0  0  0  0  0  0  0  0  0
  -12.9088   -4.5341  -21.5081 Cl  0  0  0  0  0  0  0  0  0  0  0  0
  -12.5322   -2.5297  -23.3046 C   0  0  0  0  0  0  0  0  0  0  0  0
  -11.7294   -1.6525  -24.0122 C   0  0  0  0  0  0  0  0  0  0  0  0
  -10.3389   -1.6845  -23.8820 C   0  0  0  0  0  0  0  0  0  0  0  0
   -9.5277   -0.6652  -24.6306 C   0  0  0  0  0  0  0  0  0  0  0  0
  -10.0170    0.3312  -25.1407 O   0  0  0  0  0  0  0  0  0  0  0  0
   -6.3516   -0.5790  -26.4350 C   0  0  0  0  0  0  0  0  0  0  0  0
   -7.5698    0.0828  -26.9693 C   0  0  0  0  0  0  0  0  0  0  0  0
   -5.7721    2.5003  -22.6103 H   0  0  0  0  0  0  0  0  0  0  0  0
   -7.3578    2.7141  -21.8519 H   0  0  0  0  0  0  0  0  0  0  0  0
   -6.9237    3.6591  -23.3042 H   0  0  0  0  0  0  0  0  0  0  0  0
   -8.2199    1.1401  -23.2281 H   0  0  0  0  0  0  0  0  0  0  0  0
   -6.5121   -1.8931  -23.9875 H   0  0  0  0  0  0  0  0  0  0  0  0
   -7.6542   -2.9421  -24.8494 H   0  0  0  0  0  0  0  0  0  0  0  0
   -7.3274   -1.9425  -18.3945 H   0  0  0  0  0  0  0  0  0  0  0  0
   -4.6524    0.9547  -17.1897 H   0  0  0  0  0  0  0  0  0  0  0  0
   -3.1676    2.1216  -18.8330 H   0  0  0  0  0  0  0  0  0  0  0  0
   -2.3433    2.3613  -21.1596 H   0  0  0  0  0  0  0  0  0  0  0  0
   -3.2644    0.9315  -22.9734 H   0  0  0  0  0  0  0  0  0  0  0  0
   -5.0186   -0.7152  -22.4795 H   0  0  0  0  0  0  0  0  0  0  0  0
   -6.0832   -3.8649  -20.5667 H   0  0  0  0  0  0  0  0  0  0  0  0
   -5.4680   -3.1769  -22.0825 H   0  0  0  0  0  0  0  0  0  0  0  0
   -8.2420   -4.1735  -21.4349 H   0  0  0  0  0  0  0  0  0  0  0  0
   -8.1113   -5.1817  -23.7706 H   0  0  0  0  0  0  0  0  0  0  0  0
   -6.9037   -5.8114  -22.6387 H   0  0  0  0  0  0  0  0  0  0  0  0
   -6.4466   -4.6171  -23.8616 H   0  0  0  0  0  0  0  0  0  0  0  0
  -10.1211   -4.2681  -21.6649 H   0  0  0  0  0  0  0  0  0  0  0  0
  -13.6175   -2.4963  -23.3790 H   0  0  0  0  0  0  0  0  0  0  0  0
  -12.1744   -0.9138  -24.6707 H   0  0  0  0  0  0  0  0  0  0  0  0
   -5.4091   -0.0568  -26.5530 H   0  0  0  0  0  0  0  0  0  0  0  0
   -6.2947   -1.6608  -26.5059 H   0  0  0  0  0  0  0  0  0  0  0  0
   -8.3390   -0.5551  -27.3911 H   0  0  0  0  0  0  0  0  0  0  0  0
   -7.4351    1.0448  -27.4542 H   0  0  0  0  0  0  0  0  0  0  0  0
  1  2  1  0
  2  3  1  0
  3  4  2  0
  3  5  1  0
  5  6  1  0
  6  7  1  0
  8  7  1  6
  8  9  1  0
  9 10  2  0
  9 11  1  0
 11 12  1  0
 12 13  2  0
 13 14  1  0
 14 15  2  0
 15 16  1  0
 16 17  2  0
 17 18  1  0
 18 19  2  0
 19 20  1  0
 20 21  2  0
 11 22  1  0
 22 23  1  0
 23 24  1  0
  8 25  1  0
 25 26  2  0
 26 27  1  0
 27 28  1  0
 27 29  2  0
 29 30  1  0
 30 31  2  0
 31 32  1  0
 32 33  2  0
  5 34  1  0
 34 35  1  0
 35  5  1  0
 32  6  1  0
 23  8  1  0
 31 25  1  0
 21 12  1  0
 21 16  1  0
  1 36  1  0
  1 37  1  0
  1 38  1  0
  2 39  1  0
  7 40  1  0
  7 41  1  0
 13 42  1  0
 15 43  1  0
 17 44  1  0
 18 45  1  0
 19 46  1  0
 20 47  1  0
 22 48  1  0
 22 49  1  0
 23 50  1  1
 24 51  1  0
 24 52  1  0
 24 53  1  0
 26 54  1  0
 29 55  1  0
 30 56  1  0
 34 57  1  0
 34 58  1  0
 35 59  1  0
 35 60  1  0
M  END
>  <RMSD>  (58) 
0.051676736108529193

$$$$

     RDKit          3D

 40 43  0  0  0  0  0  0  0  0999 V2000
   -9.5057   -2.7626  -23.2327 C   0  0  0  0  0  0  0  0  0  0  0  0
   -8.3733   -2.7467  -22.3275 N   0  0  0  0  0  0  0  0  0  0  0  0
   -7.4414   -3.7114  -22.0578 C   0  0  0  0  0  0  0  0  0  0  0  0
   -7.3007   -4.9460  -22.8892 C   0  0  0  0  0  0  0  0  0  0  0  0
   -6.5000   -4.5971  -24.1353 C   0  0  0  0  0  0  0  0  0  0  0  0
   -5.1315   -4.3618  -24.0019 C   0  0  0  0  0  0  0  0  0  0  0  0
   -4.3896   -3.9056  -25.0833 C   0  0  0  0  0  0  0  0  0  0  0  0
   -5.0132   -3.6703  -26.3056 C   0  0  0  0  0  0  0  0  0  0  0  0
   -6.3780   -3.9044  -26.4481 C   0  0  0  0  0  0  0  0  0  0  0  0
   -7.1189   -4.3663  -25.3624 C   0  0  0  0  0  0  0  0  0  0  0  0
   -6.5557   -3.3103  -21.1916 N   0  0  0  0  0  0  0  0  0  0  0  0
   -6.8856   -2.0120  -20.9157 N   0  0  0  0  0  0  0  0  0  0  0  0
   -6.1621   -1.1890  -19.9946 C   0  0  0  0  0  0  0  0  0  0  0  0
   -6.5384   -1.2480  -18.6804 C   0  0  0  0  0  0  0  0  0  0  0  0
   -6.0152   -0.4822  -17.6933 N   0  0  0  0  0  0  0  0  0  0  0  0
   -5.0737    0.3664  -18.0297 C   0  0  0  0  0  0  0  0  0  0  0  0
   -4.5703    0.5369  -19.3461 C   0  0  0  0  0  0  0  0  0  0  0  0
   -3.5520    1.4866  -19.6311 C   0  0  0  0  0  0  0  0  0  0  0  0
   -3.0880    1.6308  -20.9091 C   0  0  0  0  0  0  0  0  0  0  0  0
   -3.6289    0.8348  -21.9450 C   0  0  0  0  0  0  0  0  0  0  0  0
   -4.6195   -0.0866  -21.6961 C   0  0  0  0  0  0  0  0  0  0  0  0
   -5.1210   -0.2649  -20.3774 C   0  0  0  0  0  0  0  0  0  0  0  0
   -8.0340   -1.6207  -21.5844 C   0  0  0  0  0  0  0  0  0  0  0  0
   -8.6156   -0.5607  -21.5149 O   0  0  0  0  0  0  0  0  0  0  0  0
   -9.9558   -3.7570  -23.2707 H   0  0  0  0  0  0  0  0  0  0  0  0
   -9.2156   -2.4444  -24.2395 H   0  0  0  0  0  0  0  0  0  0  0  0
  -10.2401   -2.0521  -22.8509 H   0  0  0  0  0  0  0  0  0  0  0  0
   -8.2820   -5.3568  -23.1518 H   0  0  0  0  0  0  0  0  0  0  0  0
   -6.7787   -5.6810  -22.2707 H   0  0  0  0  0  0  0  0  0  0  0  0
   -4.6732   -4.5106  -23.0248 H   0  0  0  0  0  0  0  0  0  0  0  0
   -3.3290   -3.7151  -24.9604 H   0  0  0  0  0  0  0  0  0  0  0  0
   -4.4338   -3.2996  -27.1444 H   0  0  0  0  0  0  0  0  0  0  0  0
   -6.8710   -3.7224  -27.3972 H   0  0  0  0  0  0  0  0  0  0  0  0
   -8.1907   -4.5395  -25.4611 H   0  0  0  0  0  0  0  0  0  0  0  0
   -7.3259   -1.9339  -18.3819 H   0  0  0  0  0  0  0  0  0  0  0  0
   -4.6618    0.9699  -17.2238 H   0  0  0  0  0  0  0  0  0  0  0  0
   -3.1637    2.0924  -18.8158 H   0  0  0  0  0  0  0  0  0  0  0  0
   -2.3124    2.3600  -21.1354 H   0  0  0  0  0  0  0  0  0  0  0  0
   -3.2524    0.9653  -22.9557 H   0  0  0  0  0  0  0  0  0  0  0  0
   -5.0328   -0.6887  -22.4992 H   0  0  0  0  0  0  0  0  0  0  0  0
  1  2  1  0
  2  3  1  0
  3  4  1  0
  4  5  1  0
  5  6  2  0
  6  7  1  0
  7  8  2  0
  8  9  1  0
  9 10  2  0
  3 11  2  0
 11 12  1  0
 12 13  1  0
 13 14  2  0
 14 15  1  0
 15 16  2  0
 16 17  1  0
 17 18  2  0
 18 19  1  0
 19 20  2  0
 20 21  1  0
 21 22  2  0
 12 23  1  0
 23 24  2  0
 23  2  1  0
 10  5  1  0
 22 13  1  0
 22 17  1  0
  1 25  1  0
  1 26  1  0
  1 27  1  0
  4 28  1  0
  4 29  1  0
  6 30  1  0
  7 31  1  0
  8 32  1  0
  9 33  1  0
 10 34  1  0
 14 35  1  0
 16 36  1  0
 18 37  1  0
 19 38  1  0
 20 39  1  0
 21 40  1  0
M  END
>  <RMSD>  (59) 
0.0646685763223184

$$$$

     RDKit          3D

 59 64  0  0  0  0  0  0  0  0999 V2000
   -7.2369   -5.0304  -23.0343 C   0  0  0  0  0  0  0  0  0  0  0  0
   -7.5640   -3.8709  -22.1020 C   0  0  1  0  0  0  0  0  0  0  0  0
   -6.3522   -3.2982  -21.3547 C   0  0  0  0  0  0  0  0  0  0  0  0
   -6.8105   -1.9765  -20.9728 N   0  0  0  0  0  0  0  0  0  0  0  0
   -6.1766   -1.1528  -20.0046 C   0  0  0  0  0  0  0  0  0  0  0  0
   -6.5485   -1.2412  -18.6881 C   0  0  0  0  0  0  0  0  0  0  0  0
   -6.0143   -0.5009  -17.6832 N   0  0  0  0  0  0  0  0  0  0  0  0
   -5.0742    0.3590  -18.0009 C   0  0  0  0  0  0  0  0  0  0  0  0
   -4.5709    0.5406  -19.3221 C   0  0  0  0  0  0  0  0  0  0  0  0
   -3.5541    1.4885  -19.6319 C   0  0  0  0  0  0  0  0  0  0  0  0
   -3.1033    1.6256  -20.9155 C   0  0  0  0  0  0  0  0  0  0  0  0
   -3.6294    0.8177  -21.9503 C   0  0  0  0  0  0  0  0  0  0  0  0
   -4.6098   -0.1055  -21.6765 C   0  0  0  0  0  0  0  0  0  0  0  0
   -5.1222   -0.2502  -20.3607 C   0  0  0  0  0  0  0  0  0  0  0  0
   -7.8907   -1.5323  -21.7106 C   0  0  0  0  0  0  0  0  0  0  0  0
   -8.4400   -0.4712  -21.5323 O   0  0  0  0  0  0  0  0  0  0  0  0
   -8.2364   -2.6311  -22.7527 C   0  0  1  0  0  0  0  0  0  0  0  0
   -7.5906   -2.2854  -24.1235 C   0  0  0  0  0  0  0  0  0  0  0  0
   -8.1570   -1.0831  -24.7040 N   0  0  0  0  0  0  0  0  0  0  0  0
   -7.3336   -0.2668  -25.5778 C   0  0  0  0  0  0  0  0  0  0  0  0
   -6.9313    1.0376  -24.9437 C   0  0  0  0  0  0  0  0  0  0  0  0
   -6.9305    1.2591  -23.6493 N   0  0  0  0  0  0  0  0  0  0  0  0
   -6.4502    2.5337  -23.4976 C   0  0  0  0  0  0  0  0  0  0  0  0
   -6.1433    3.0776  -24.7180 C   0  0  0  0  0  0  0  0  0  0  0  0
   -6.4499    2.1042  -25.6454 N   0  0  0  0  0  0  0  0  0  0  0  0
   -6.3147    2.1980  -27.0831 C   0  0  0  0  0  0  0  0  0  0  0  0
   -9.4984   -0.8172  -24.6541 C   0  0  0  0  0  0  0  0  0  0  0  0
   -9.9877    0.1335  -25.2446 O   0  0  0  0  0  0  0  0  0  0  0  0
  -10.3296   -1.7773  -23.8456 C   0  0  0  0  0  0  0  0  0  0  0  0
  -11.7197   -1.7164  -23.9729 C   0  0  0  0  0  0  0  0  0  0  0  0
  -12.5360   -2.5708  -23.2553 C   0  0  0  0  0  0  0  0  0  0  0  0
  -11.9252   -3.4957  -22.4129 C   0  0  0  0  0  0  0  0  0  0  0  0
  -12.6994   -4.3291  -21.6966 F   0  0  0  0  0  0  0  0  0  0  0  0
  -10.5556   -3.5830  -22.2636 C   0  0  0  0  0  0  0  0  0  0  0  0
   -9.7310   -2.7068  -22.9778 C   0  0  0  0  0  0  0  0  0  0  0  0
   -6.8809   -5.9043  -22.4789 H   0  0  0  0  0  0  0  0  0  0  0  0
   -8.1116   -5.3384  -23.6167 H   0  0  0  0  0  0  0  0  0  0  0  0
   -6.4566   -4.7542  -23.7505 H   0  0  0  0  0  0  0  0  0  0  0  0
   -8.2403   -4.2398  -21.3268 H   0  0  0  0  0  0  0  0  0  0  0  0
   -5.4662   -3.2736  -22.0134 H   0  0  0  0  0  0  0  0  0  0  0  0
   -6.0890   -3.8829  -20.4695 H   0  0  0  0  0  0  0  0  0  0  0  0
   -7.3319   -1.9363  -18.3939 H   0  0  0  0  0  0  0  0  0  0  0  0
   -4.6547    0.9629  -17.1935 H   0  0  0  0  0  0  0  0  0  0  0  0
   -3.1537    2.1089  -18.8313 H   0  0  0  0  0  0  0  0  0  0  0  0
   -2.3316    2.3547  -21.1537 H   0  0  0  0  0  0  0  0  0  0  0  0
   -3.2765    0.9418  -22.9710 H   0  0  0  0  0  0  0  0  0  0  0  0
   -5.0416   -0.6986  -22.4805 H   0  0  0  0  0  0  0  0  0  0  0  0
   -7.7275   -3.1279  -24.8197 H   0  0  0  0  0  0  0  0  0  0  0  0
   -6.5158   -2.1208  -23.9859 H   0  0  0  0  0  0  0  0  0  0  0  0
   -6.4283   -0.8432  -25.8153 H   0  0  0  0  0  0  0  0  0  0  0  0
   -7.8695   -0.0999  -26.5192 H   0  0  0  0  0  0  0  0  0  0  0  0
   -6.3459    2.9802  -22.5193 H   0  0  0  0  0  0  0  0  0  0  0  0
   -5.7482    4.0431  -25.0026 H   0  0  0  0  0  0  0  0  0  0  0  0
   -7.2868    2.2392  -27.5864 H   0  0  0  0  0  0  0  0  0  0  0  0
   -5.7697    3.1096  -27.3188 H   0  0  0  0  0  0  0  0  0  0  0  0
   -5.7457    1.3548  -27.4870 H   0  0  0  0  0  0  0  0  0  0  0  0
  -12.1536   -0.9866  -24.6471 H   0  0  0  0  0  0  0  0  0  0  0  0
  -13.6214   -2.5331  -23.3208 H   0  0  0  0  0  0  0  0  0  0  0  0
  -10.1530   -4.3361  -21.5930 H   0  0  0  0  0  0  0  0  0  0  0  0
  1  2  1  0
  2  3  1  0
  3  4  1  0
  4  5  1  0
  5  6  2  0
  6  7  1  0
  7  8  2  0
  8  9  1  0
  9 10  2  0
 10 11  1  0
 11 12  2  0
 12 13  1  0
 13 14  2  0
  4 15  1  0
 15 16  2  0
 15 17  1  0
 17 18  1  6
 18 19  1  0
 19 20  1  0
 20 21  1  0
 21 22  2  0
 22 23  1  0
 23 24  2  0
 24 25  1  0
 25 26  1  0
 19 27  1  0
 27 28  2  0
 27 29  1  0
 29 30  2  0
 30 31  1  0
 31 32  2  0
 32 33  1  0
 32 34  1  0
 34 35  2  0
 17  2  1  0
 25 21  1  0
 35 29  1  0
 14  5  1  0
 35 17  1  0
 14  9  1  0
  1 36  1  0
  1 37  1  0
  1 38  1  0
  2 39  1  1
  3 40  1  0
  3 41  1  0
  6 42  1  0
  8 43  1  0
 10 44  1  0
 11 45  1  0
 12 46  1  0
 13 47  1  0
 18 48  1  0
 18 49  1  0
 20 50  1  0
 20 51  1  0
 23 52  1  0
 24 53  1  0
 26 54  1  0
 26 55  1  0
 26 56  1  0
 30 57  1  0
 31 58  1  0
 34 59  1  0
M  END
>  <RMSD>  (60) 
0.057052355867605827

$$$$

     RDKit          3D

 56 61  0  0  0  0  0  0  0  0999 V2000
   -7.2344   -5.0323  -23.0363 C   0  0  0  0  0  0  0  0  0  0  0  0
   -7.5625   -3.8769  -22.1005 C   0  0  1  0  0  0  0  0  0  0  0  0
   -6.3536   -3.2982  -21.3560 C   0  0  0  0  0  0  0  0  0  0  0  0
   -6.8091   -1.9732  -20.9769 N   0  0  0  0  0  0  0  0  0  0  0  0
   -6.1743   -1.1555  -20.0049 C   0  0  0  0  0  0  0  0  0  0  0  0
   -6.5465   -1.2445  -18.6862 C   0  0  0  0  0  0  0  0  0  0  0  0
   -6.0159   -0.5015  -17.6833 N   0  0  0  0  0  0  0  0  0  0  0  0
   -5.0742    0.3603  -17.9985 C   0  0  0  0  0  0  0  0  0  0  0  0
   -4.5722    0.5399  -19.3214 C   0  0  0  0  0  0  0  0  0  0  0  0
   -3.5566    1.4894  -19.6311 C   0  0  0  0  0  0  0  0  0  0  0  0
   -3.1044    1.6252  -20.9166 C   0  0  0  0  0  0  0  0  0  0  0  0
   -3.6292    0.8158  -21.9468 C   0  0  0  0  0  0  0  0  0  0  0  0
   -4.6182   -0.1001  -21.6780 C   0  0  0  0  0  0  0  0  0  0  0  0
   -5.1226   -0.2507  -20.3575 C   0  0  0  0  0  0  0  0  0  0  0  0
   -7.8825   -1.5272  -21.7254 C   0  0  0  0  0  0  0  0  0  0  0  0
   -8.4223   -0.4569  -21.5777 O   0  0  0  0  0  0  0  0  0  0  0  0
   -8.2341   -2.6382  -22.7533 C   0  0  1  0  0  0  0  0  0  0  0  0
   -7.5863   -2.2903  -24.1207 C   0  0  0  0  0  0  0  0  0  0  0  0
   -8.1517   -1.0862  -24.6945 N   0  0  0  0  0  0  0  0  0  0  0  0
   -7.3248   -0.2675  -25.5532 C   0  0  0  0  0  0  0  0  0  0  0  0
   -7.0010    1.0679  -24.9668 C   0  0  0  0  0  0  0  0  0  0  0  0
   -6.8470    2.2625  -25.6919 C   0  0  0  0  0  0  0  0  0  0  0  0
   -6.4932    3.2058  -24.7610 C   0  0  0  0  0  0  0  0  0  0  0  0
   -6.4583    2.5479  -23.5815 N   0  0  0  0  0  0  0  0  0  0  0  0
   -6.7523    1.2437  -23.6691 N   0  0  0  0  0  0  0  0  0  0  0  0
   -9.4911   -0.8135  -24.6481 C   0  0  0  0  0  0  0  0  0  0  0  0
   -9.9828    0.1403  -25.2376 O   0  0  0  0  0  0  0  0  0  0  0  0
  -10.3263   -1.7776  -23.8489 C   0  0  0  0  0  0  0  0  0  0  0  0
  -11.7178   -1.7194  -23.9767 C   0  0  0  0  0  0  0  0  0  0  0  0
  -12.5297   -2.5736  -23.2564 C   0  0  0  0  0  0  0  0  0  0  0  0
  -11.9219   -3.4972  -22.4154 C   0  0  0  0  0  0  0  0  0  0  0  0
  -12.6937   -4.3312  -21.6993 F   0  0  0  0  0  0  0  0  0  0  0  0
  -10.5527   -3.5856  -22.2668 C   0  0  0  0  0  0  0  0  0  0  0  0
   -9.7299   -2.7086  -22.9806 C   0  0  0  0  0  0  0  0  0  0  0  0
   -6.8787   -5.9029  -22.4786 H   0  0  0  0  0  0  0  0  0  0  0  0
   -8.1091   -5.3407  -23.6186 H   0  0  0  0  0  0  0  0  0  0  0  0
   -6.4522   -4.7547  -23.7488 H   0  0  0  0  0  0  0  0  0  0  0  0
   -8.2295   -4.2537  -21.3196 H   0  0  0  0  0  0  0  0  0  0  0  0
   -6.0984   -3.8851  -20.4715 H   0  0  0  0  0  0  0  0  0  0  0  0
   -5.4700   -3.2735  -22.0163 H   0  0  0  0  0  0  0  0  0  0  0  0
   -7.3324   -1.9378  -18.3947 H   0  0  0  0  0  0  0  0  0  0  0  0
   -4.6527    0.9658  -17.1941 H   0  0  0  0  0  0  0  0  0  0  0  0
   -3.1506    2.1105  -18.8367 H   0  0  0  0  0  0  0  0  0  0  0  0
   -2.3312    2.3522  -21.1536 H   0  0  0  0  0  0  0  0  0  0  0  0
   -3.2750    0.9391  -22.9674 H   0  0  0  0  0  0  0  0  0  0  0  0
   -5.0387   -0.6970  -22.4827 H   0  0  0  0  0  0  0  0  0  0  0  0
   -7.7260   -3.1230  -24.8246 H   0  0  0  0  0  0  0  0  0  0  0  0
   -6.5100   -2.1270  -23.9834 H   0  0  0  0  0  0  0  0  0  0  0  0
   -6.3951   -0.8098  -25.7551 H   0  0  0  0  0  0  0  0  0  0  0  0
   -7.8206   -0.1465  -26.5203 H   0  0  0  0  0  0  0  0  0  0  0  0
   -6.9651    2.4011  -26.7556 H   0  0  0  0  0  0  0  0  0  0  0  0
   -6.2666    4.2635  -24.8574 H   0  0  0  0  0  0  0  0  0  0  0  0
   -6.2270    2.9301  -22.6832 H   0  0  0  0  0  0  0  0  0  0  0  0
  -12.1605   -0.9947  -24.6500 H   0  0  0  0  0  0  0  0  0  0  0  0
  -13.6137   -2.5344  -23.3257 H   0  0  0  0  0  0  0  0  0  0  0  0
  -10.1544   -4.3382  -21.5958 H   0  0  0  0  0  0  0  0  0  0  0  0
  1  2  1  0
  2  3  1  0
  3  4  1  0
  4  5  1  0
  5  6  2  0
  6  7  1  0
  7  8  2  0
  8  9  1  0
  9 10  2  0
 10 11  1  0
 11 12  2  0
 12 13  1  0
 13 14  2  0
  4 15  1  0
 15 16  2  0
 15 17  1  0
 17 18  1  6
 18 19  1  0
 19 20  1  0
 20 21  1  0
 21 22  1  0
 22 23  2  0
 23 24  1  0
 24 25  1  0
 19 26  1  0
 26 27  2  0
 26 28  1  0
 28 29  2  0
 29 30  1  0
 30 31  2  0
 31 32  1  0
 31 33  1  0
 33 34  2  0
 17  2  1  0
 25 21  2  0
 34 28  1  0
 14  5  1  0
 34 17  1  0
 14  9  1  0
  1 35  1  0
  1 36  1  0
  1 37  1  0
  2 38  1  1
  3 39  1  0
  3 40  1  0
  6 41  1  0
  8 42  1  0
 10 43  1  0
 11 44  1  0
 12 45  1  0
 13 46  1  0
 18 47  1  0
 18 48  1  0
 20 49  1  0
 20 50  1  0
 22 51  1  0
 23 52  1  0
 24 53  1  0
 29 54  1  0
 30 55  1  0
 33 56  1  0
M  END
>  <RMSD>  (61) 
0.05500358211140555

$$$$

     RDKit          3D

 73 78  0  0  0  0  0  0  0  0999 V2000
   -7.3590   -4.9998  -23.0540 C   0  0  0  0  0  0  0  0  0  0  0  0
   -7.6008   -3.8417  -22.0967 C   0  0  1  0  0  0  0  0  0  0  0  0
   -6.3415   -3.3175  -21.3883 C   0  0  0  0  0  0  0  0  0  0  0  0
   -6.7883   -2.0072  -20.9395 N   0  0  0  0  0  0  0  0  0  0  0  0
   -6.1464   -1.1848  -19.9834 C   0  0  0  0  0  0  0  0  0  0  0  0
   -6.5642   -1.2273  -18.6788 C   0  0  0  0  0  0  0  0  0  0  0  0
   -6.0326   -0.4784  -17.6805 N   0  0  0  0  0  0  0  0  0  0  0  0
   -5.0742    0.3564  -18.0090 C   0  0  0  0  0  0  0  0  0  0  0  0
   -4.5557    0.5180  -19.3279 C   0  0  0  0  0  0  0  0  0  0  0  0
   -3.5411    1.4649  -19.6344 C   0  0  0  0  0  0  0  0  0  0  0  0
   -3.0918    1.6183  -20.9182 C   0  0  0  0  0  0  0  0  0  0  0  0
   -3.6350    0.8349  -21.9614 C   0  0  0  0  0  0  0  0  0  0  0  0
   -4.6100   -0.0987  -21.6887 C   0  0  0  0  0  0  0  0  0  0  0  0
   -5.1043   -0.2778  -20.3639 C   0  0  0  0  0  0  0  0  0  0  0  0
   -7.9928   -1.6155  -21.4875 C   0  0  0  0  0  0  0  0  0  0  0  0
   -8.6645   -0.6942  -21.0711 O   0  0  0  0  0  0  0  0  0  0  0  0
   -8.2880   -2.5621  -22.6671 C   0  0  1  0  0  0  0  0  0  0  0  0
   -7.5858   -2.0641  -23.9647 C   0  0  0  0  0  0  0  0  0  0  0  0
   -8.2718   -0.9392  -24.5840 N   0  0  0  0  0  0  0  0  0  0  0  0
   -7.5448    0.2758  -24.9560 C   0  0  0  0  0  0  0  0  0  0  0  0
   -7.4705    1.2508  -23.7792 C   0  0  0  0  0  0  0  0  0  0  0  0
   -6.6881    2.4884  -24.0417 N   0  0  0  0  0  0  0  0  0  0  0  0
   -7.3976    3.4176  -24.9798 C   0  0  0  0  0  0  0  0  0  0  0  0
   -6.5056    4.5975  -25.3812 C   0  0  0  0  0  0  0  0  0  0  0  0
   -5.6823    5.0951  -24.2551 N   0  0  0  0  0  0  0  0  0  0  0  0
   -4.0659    4.6411  -24.4976 S   0  0  0  0  0  0  0  0  0  0  0  0
   -3.2453    5.5099  -23.1826 C   0  0  0  0  0  0  0  0  0  0  0  0
   -3.9599    3.1939  -24.3168 O   0  0  0  0  0  0  0  0  0  0  0  0
   -3.6338    5.2394  -25.7520 O   0  0  0  0  0  0  0  0  0  0  0  0
   -6.2574    4.7204  -22.9468 C   0  0  0  0  0  0  0  0  0  0  0  0
   -6.3937    3.2032  -22.7393 C   0  0  0  0  0  0  0  0  0  0  0  0
   -9.6175   -1.0103  -24.8400 C   0  0  0  0  0  0  0  0  0  0  0  0
  -10.1792   -0.2995  -25.6594 O   0  0  0  0  0  0  0  0  0  0  0  0
  -10.3814   -1.9886  -23.9878 C   0  0  0  0  0  0  0  0  0  0  0  0
  -11.7478   -2.1219  -24.2305 C   0  0  0  0  0  0  0  0  0  0  0  0
  -12.5561   -2.8084  -23.3453 C   0  0  0  0  0  0  0  0  0  0  0  0
  -11.9632   -3.3901  -22.2219 C   0  0  0  0  0  0  0  0  0  0  0  0
  -12.9730   -4.1693  -21.0288 Cl  0  0  0  0  0  0  0  0  0  0  0  0
  -10.5975   -3.3289  -22.0069 C   0  0  0  0  0  0  0  0  0  0  0  0
   -9.7712   -2.6584  -22.9186 C   0  0  0  0  0  0  0  0  0  0  0  0
   -6.6140   -4.7483  -23.8199 H   0  0  0  0  0  0  0  0  0  0  0  0
   -8.2861   -5.2834  -23.5650 H   0  0  0  0  0  0  0  0  0  0  0  0
   -6.9909   -5.8771  -22.5059 H   0  0  0  0  0  0  0  0  0  0  0  0
   -8.2468   -4.2007  -21.2870 H   0  0  0  0  0  0  0  0  0  0  0  0
   -6.0391   -3.9552  -20.5477 H   0  0  0  0  0  0  0  0  0  0  0  0
   -5.4807   -3.2664  -22.0763 H   0  0  0  0  0  0  0  0  0  0  0  0
   -7.3740   -1.8968  -18.3913 H   0  0  0  0  0  0  0  0  0  0  0  0
   -4.6687    0.9751  -17.2080 H   0  0  0  0  0  0  0  0  0  0  0  0
   -3.1539    2.0708  -18.8215 H   0  0  0  0  0  0  0  0  0  0  0  0
   -2.3293    2.3610  -21.1461 H   0  0  0  0  0  0  0  0  0  0  0  0
   -3.3184    1.0133  -22.9833 H   0  0  0  0  0  0  0  0  0  0  0  0
   -5.0159   -0.7040  -22.4945 H   0  0  0  0  0  0  0  0  0  0  0  0
   -6.5545   -1.7622  -23.7573 H   0  0  0  0  0  0  0  0  0  0  0  0
   -7.5526   -2.9014  -24.6748 H   0  0  0  0  0  0  0  0  0  0  0  0
   -6.5280    0.0226  -25.2856 H   0  0  0  0  0  0  0  0  0  0  0  0
   -8.0686    0.7131  -25.8080 H   0  0  0  0  0  0  0  0  0  0  0  0
   -8.4879    1.5365  -23.4893 H   0  0  0  0  0  0  0  0  0  0  0  0
   -7.0272    0.7393  -22.9234 H   0  0  0  0  0  0  0  0  0  0  0  0
   -5.7555    2.2526  -24.4285 H   0  0  0  0  0  0  0  0  0  0  0  0
   -7.7043    2.8755  -25.8744 H   0  0  0  0  0  0  0  0  0  0  0  0
   -8.3106    3.7870  -24.4948 H   0  0  0  0  0  0  0  0  0  0  0  0
   -5.8229    4.3125  -26.1895 H   0  0  0  0  0  0  0  0  0  0  0  0
   -7.1327    5.4127  -25.7583 H   0  0  0  0  0  0  0  0  0  0  0  0
   -3.3811    4.9670  -22.2441 H   0  0  0  0  0  0  0  0  0  0  0  0
   -2.1826    5.5949  -23.4289 H   0  0  0  0  0  0  0  0  0  0  0  0
   -3.6847    6.5121  -23.1450 H   0  0  0  0  0  0  0  0  0  0  0  0
   -5.6660    5.1666  -22.1401 H   0  0  0  0  0  0  0  0  0  0  0  0
   -7.2452    5.1945  -22.9107 H   0  0  0  0  0  0  0  0  0  0  0  0
   -5.4802    2.7864  -22.3095 H   0  0  0  0  0  0  0  0  0  0  0  0
   -7.2184    3.0047  -22.0504 H   0  0  0  0  0  0  0  0  0  0  0  0
  -12.1629   -1.6431  -25.1106 H   0  0  0  0  0  0  0  0  0  0  0  0
  -13.6292   -2.8784  -23.4984 H   0  0  0  0  0  0  0  0  0  0  0  0
  -10.1855   -3.8020  -21.1220 H   0  0  0  0  0  0  0  0  0  0  0  0
  1  2  1  0
  2  3  1  0
  3  4  1  0
  4  5  1  0
  5  6  2  0
  6  7  1  0
  7  8  2  0
  8  9  1  0
  9 10  2  0
 10 11  1  0
 11 12  2  0
 12 13  1  0
 13 14  2  0
  4 15  1  0
 15 16  2  0
 15 17  1  0
 17 18  1  6
 18 19  1  0
 19 20  1  0
 20 21  1  0
 21 22  1  0
 22 23  1  0
 23 24  1  0
 24 25  1  0
 25 26  1  0
 26 27  1  0
 26 28  2  0
 26 29  2  0
 25 30  1  0
 30 31  1  0
 19 32  1  0
 32 33  2  0
 32 34  1  0
 34 35  2  0
 35 36  1  0
 36 37  2  0
 37 38  1  0
 37 39  1  0
 39 40  2  0
 17  2  1  0
 31 22  1  0
 40 34  1  0
 14  5  1  0
 40 17  1  0
 14  9  1  0
  1 41  1  0
  1 42  1  0
  1 43  1  0
  2 44  1  1
  3 45  1  0
  3 46  1  0
  6 47  1  0
  8 48  1  0
 10 49  1  0
 11 50  1  0
 12 51  1  0
 13 52  1  0
 18 53  1  0
 18 54  1  0
 20 55  1  0
 20 56  1  0
 21 57  1  0
 21 58  1  0
 22 59  1  0
 23 60  1  0
 23 61  1  0
 24 62  1  0
 24 63  1  0
 27 64  1  0
 27 65  1  0
 27 66  1  0
 30 67  1  0
 30 68  1  0
 31 69  1  0
 31 70  1  0
 35 71  1  0
 36 72  1  0
 39 73  1  0
M  CHG  1  22   1
M  END
>  <RMSD>  (62) 
0.0803939781654164

$$$$

     RDKit          3D

 42 45  0  0  0  0  0  0  0  0999 V2000
   -8.5121   -0.6925  -21.2419 O   0  0  0  0  0  0  0  0  0  0  0  0
   -8.0308   -1.7980  -21.3803 C   0  0  0  0  0  0  0  0  0  0  0  0
   -8.7904   -3.0016  -21.9417 C   0  0  1  0  0  0  0  0  0  0  0  0
  -10.1564   -2.6191  -22.4778 C   0  0  0  0  0  0  0  0  0  0  0  0
  -10.3202   -1.7342  -23.5448 C   0  0  0  0  0  0  0  0  0  0  0  0
  -11.5923   -1.3565  -23.9639 C   0  0  0  0  0  0  0  0  0  0  0  0
  -12.7281   -1.8718  -23.3415 C   0  0  0  0  0  0  0  0  0  0  0  0
  -14.2977   -1.3284  -23.8441 Cl  0  0  0  0  0  0  0  0  0  0  0  0
  -12.5773   -2.8116  -22.3176 C   0  0  0  0  0  0  0  0  0  0  0  0
  -13.9515   -3.5490  -21.5566 Cl  0  0  0  0  0  0  0  0  0  0  0  0
  -11.2989   -3.1654  -21.8877 C   0  0  0  0  0  0  0  0  0  0  0  0
   -7.8915   -3.7641  -22.9153 C   0  0  0  0  0  0  0  0  0  0  0  0
   -6.6588   -4.2767  -22.1822 C   0  0  2  0  0  0  0  0  0  0  0  0
   -7.0033   -5.2396  -21.2007 O   0  0  0  0  0  0  0  0  0  0  0  0
   -5.9037   -3.1409  -21.5021 C   0  0  0  0  0  0  0  0  0  0  0  0
   -6.7460   -2.0873  -20.9406 N   0  0  0  0  0  0  0  0  0  0  0  0
   -6.1552   -1.1896  -20.0015 C   0  0  0  0  0  0  0  0  0  0  0  0
   -6.5567   -1.2296  -18.6868 C   0  0  0  0  0  0  0  0  0  0  0  0
   -6.0422   -0.4677  -17.6896 N   0  0  0  0  0  0  0  0  0  0  0  0
   -5.0892    0.3803  -18.0079 C   0  0  0  0  0  0  0  0  0  0  0  0
   -4.5687    0.5314  -19.3283 C   0  0  0  0  0  0  0  0  0  0  0  0
   -3.5346    1.4680  -19.6240 C   0  0  0  0  0  0  0  0  0  0  0  0
   -3.0778    1.6085  -20.9086 C   0  0  0  0  0  0  0  0  0  0  0  0
   -3.6412    0.8354  -21.9489 C   0  0  0  0  0  0  0  0  0  0  0  0
   -4.6473   -0.0659  -21.6925 C   0  0  0  0  0  0  0  0  0  0  0  0
   -5.1201   -0.2627  -20.3624 C   0  0  0  0  0  0  0  0  0  0  0  0
   -8.9597   -3.6741  -21.0923 H   0  0  0  0  0  0  0  0  0  0  0  0
   -9.4531   -1.2946  -24.0351 H   0  0  0  0  0  0  0  0  0  0  0  0
  -11.7187   -0.6373  -24.7679 H   0  0  0  0  0  0  0  0  0  0  0  0
  -11.2096   -3.8816  -21.0717 H   0  0  0  0  0  0  0  0  0  0  0  0
   -7.5924   -3.1238  -23.7529 H   0  0  0  0  0  0  0  0  0  0  0  0
   -8.4347   -4.6165  -23.3387 H   0  0  0  0  0  0  0  0  0  0  0  0
   -5.9640   -4.7295  -22.9049 H   0  0  0  0  0  0  0  0  0  0  0  0
   -7.2534   -6.0478  -21.6689 H   0  0  0  0  0  0  0  0  0  0  0  0
   -5.2012   -2.7138  -22.2272 H   0  0  0  0  0  0  0  0  0  0  0  0
   -5.2976   -3.5508  -20.6900 H   0  0  0  0  0  0  0  0  0  0  0  0
   -7.3334   -1.9311  -18.3912 H   0  0  0  0  0  0  0  0  0  0  0  0
   -4.6804    1.0000  -17.2081 H   0  0  0  0  0  0  0  0  0  0  0  0
   -3.1237    2.0757  -18.8210 H   0  0  0  0  0  0  0  0  0  0  0  0
   -2.2983    2.3325  -21.1428 H   0  0  0  0  0  0  0  0  0  0  0  0
   -3.2882    0.9630  -22.9692 H   0  0  0  0  0  0  0  0  0  0  0  0
   -5.1005   -0.6231  -22.5069 H   0  0  0  0  0  0  0  0  0  0  0  0
  1  2  2  0
  2  3  1  0
  3  4  1  0
  4  5  2  0
  5  6  1  0
  6  7  2  0
  7  8  1  0
  7  9  1  0
  9 10  1  0
  9 11  2  0
  3 12  1  0
 12 13  1  0
 13 14  1  0
 13 15  1  0
 15 16  1  0
 16 17  1  0
 17 18  2  0
 18 19  1  0
 19 20  2  0
 20 21  1  0
 21 22  2  0
 22 23  1  0
 23 24  2  0
 24 25  1  0
 25 26  2  0
 16  2  1  0
 26 17  1  0
 11  4  1  0
 26 21  1  0
  3 27  1  1
  5 28  1  0
  6 29  1  0
 11 30  1  0
 12 31  1  0
 12 32  1  0
 13 33  1  6
 14 34  1  0
 15 35  1  0
 15 36  1  0
 18 37  1  0
 20 38  1  0
 22 39  1  0
 23 40  1  0
 24 41  1  0
 25 42  1  0
M  END
>  <RMSD>  (63) 
0.08933800217336374

$$$$

     RDKit          3D

 63 68  0  0  0  0  0  0  0  0999 V2000
   -7.1727   -5.0980  -22.9661 C   0  0  0  0  0  0  0  0  0  0  0  0
   -7.5372   -3.9481  -22.0259 C   0  0  1  0  0  0  0  0  0  0  0  0
   -6.3291   -3.3273  -21.2999 C   0  0  0  0  0  0  0  0  0  0  0  0
   -6.8070   -2.0012  -20.9496 N   0  0  0  0  0  0  0  0  0  0  0  0
   -6.1826   -1.1521  -19.9993 C   0  0  0  0  0  0  0  0  0  0  0  0
   -6.5591   -1.2267  -18.6840 C   0  0  0  0  0  0  0  0  0  0  0  0
   -6.0120   -0.4940  -17.6791 N   0  0  0  0  0  0  0  0  0  0  0  0
   -5.0633    0.3505  -18.0054 C   0  0  0  0  0  0  0  0  0  0  0  0
   -4.5726    0.5376  -19.3320 C   0  0  0  0  0  0  0  0  0  0  0  0
   -3.5565    1.4850  -19.6334 C   0  0  0  0  0  0  0  0  0  0  0  0
   -3.0978    1.6253  -20.9145 C   0  0  0  0  0  0  0  0  0  0  0  0
   -3.6233    0.8180  -21.9503 C   0  0  0  0  0  0  0  0  0  0  0  0
   -4.6163   -0.0951  -21.6868 C   0  0  0  0  0  0  0  0  0  0  0  0
   -5.1323   -0.2482  -20.3695 C   0  0  0  0  0  0  0  0  0  0  0  0
   -7.9415   -1.6151  -21.6295 C   0  0  0  0  0  0  0  0  0  0  0  0
   -8.5323   -0.5697  -21.4365 O   0  0  0  0  0  0  0  0  0  0  0  0
   -8.2707   -2.7249  -22.6631 C   0  0  1  0  0  0  0  0  0  0  0  0
   -7.6128   -2.3436  -24.0107 C   0  0  0  0  0  0  0  0  0  0  0  0
   -8.3803   -1.3212  -24.7183 N   0  0  0  0  0  0  0  0  0  0  0  0
   -7.6143   -0.5389  -25.6858 C   0  0  0  0  0  0  0  0  0  0  0  0
   -6.7935    0.6223  -25.0949 C   0  0  0  0  0  0  0  0  0  0  0  0
   -5.6959    0.9164  -25.5373 O   0  0  0  0  0  0  0  0  0  0  0  0
   -7.3825    1.2769  -24.0575 N   0  0  0  0  0  0  0  0  0  0  0  0
   -6.7531    2.4251  -23.4293 C   0  0  0  0  0  0  0  0  0  0  0  0
   -6.9904    3.7349  -24.1495 C   0  0  0  0  0  0  0  0  0  0  0  0
   -6.4345    3.7226  -25.4052 F   0  0  0  0  0  0  0  0  0  0  0  0
   -6.9664    5.0242  -23.3941 C   0  0  0  0  0  0  0  0  0  0  0  0
   -8.2703    4.4845  -23.9726 C   0  0  0  0  0  0  0  0  0  0  0  0
   -9.6713   -1.6971  -25.0736 C   0  0  0  0  0  0  0  0  0  0  0  0
  -10.1700   -1.4536  -26.1581 O   0  0  0  0  0  0  0  0  0  0  0  0
  -10.4277   -2.3782  -23.9717 C   0  0  0  0  0  0  0  0  0  0  0  0
  -11.8203   -2.4477  -24.0707 C   0  0  0  0  0  0  0  0  0  0  0  0
  -12.5781   -3.0083  -23.0608 C   0  0  0  0  0  0  0  0  0  0  0  0
  -11.9069   -3.5197  -21.9557 C   0  0  0  0  0  0  0  0  0  0  0  0
  -12.6274   -4.0773  -20.9691 F   0  0  0  0  0  0  0  0  0  0  0  0
  -10.5345   -3.4756  -21.8301 C   0  0  0  0  0  0  0  0  0  0  0  0
   -9.7644   -2.8878  -22.8466 C   0  0  0  0  0  0  0  0  0  0  0  0
   -6.3680   -4.8101  -23.6537 H   0  0  0  0  0  0  0  0  0  0  0  0
   -8.0324   -5.4006  -23.5746 H   0  0  0  0  0  0  0  0  0  0  0  0
   -6.8282   -5.9748  -22.4062 H   0  0  0  0  0  0  0  0  0  0  0  0
   -8.2172   -4.3358  -21.2615 H   0  0  0  0  0  0  0  0  0  0  0  0
   -5.4536   -3.2879  -21.9699 H   0  0  0  0  0  0  0  0  0  0  0  0
   -6.0272   -3.8769  -20.4024 H   0  0  0  0  0  0  0  0  0  0  0  0
   -7.3474   -1.9185  -18.3918 H   0  0  0  0  0  0  0  0  0  0  0  0
   -4.6328    0.9409  -17.1957 H   0  0  0  0  0  0  0  0  0  0  0  0
   -3.1728    2.1013  -18.8242 H   0  0  0  0  0  0  0  0  0  0  0  0
   -2.3434    2.3708  -21.1528 H   0  0  0  0  0  0  0  0  0  0  0  0
   -3.2661    0.9484  -22.9703 H   0  0  0  0  0  0  0  0  0  0  0  0
   -5.0185   -0.7044  -22.4917 H   0  0  0  0  0  0  0  0  0  0  0  0
   -6.6132   -1.9398  -23.8279 H   0  0  0  0  0  0  0  0  0  0  0  0
   -7.5122   -3.2440  -24.6420 H   0  0  0  0  0  0  0  0  0  0  0  0
   -8.3390   -0.1452  -26.4031 H   0  0  0  0  0  0  0  0  0  0  0  0
   -6.9028   -1.1554  -26.2458 H   0  0  0  0  0  0  0  0  0  0  0  0
   -8.3103    0.9973  -23.7728 H   0  0  0  0  0  0  0  0  0  0  0  0
   -5.6752    2.2366  -23.3678 H   0  0  0  0  0  0  0  0  0  0  0  0
   -7.1551    2.5192  -22.4116 H   0  0  0  0  0  0  0  0  0  0  0  0
   -6.5203    5.8891  -23.8801 H   0  0  0  0  0  0  0  0  0  0  0  0
   -6.8011    4.9986  -22.3147 H   0  0  0  0  0  0  0  0  0  0  0  0
   -9.0288    4.0688  -23.3075 H   0  0  0  0  0  0  0  0  0  0  0  0
   -8.6779    4.9878  -24.8462 H   0  0  0  0  0  0  0  0  0  0  0  0
  -12.2919   -2.0231  -24.9498 H   0  0  0  0  0  0  0  0  0  0  0  0
  -13.6633   -3.0362  -23.0886 H   0  0  0  0  0  0  0  0  0  0  0  0
  -10.0845   -3.8877  -20.9312 H   0  0  0  0  0  0  0  0  0  0  0  0
  1  2  1  0
  2  3  1  0
  3  4  1  0
  4  5  1  0
  5  6  2  0
  6  7  1  0
  7  8  2  0
  8  9  1  0
  9 10  2  0
 10 11  1  0
 11 12  2  0
 12 13  1  0
 13 14  2  0
  4 15  1  0
 15 16  2  0
 15 17  1  0
 17 18  1  6
 18 19  1  0
 19 20  1  0
 20 21  1  0
 21 22  2  0
 21 23  1  0
 23 24  1  0
 24 25  1  0
 25 26  1  0
 25 27  1  0
 27 28  1  0
 19 29  1  0
 29 30  2  0
 29 31  1  0
 31 32  2  0
 32 33  1  0
 33 34  2  0
 34 35  1  0
 34 36  1  0
 36 37  2  0
 17  2  1  0
 28 25  1  0
 37 31  1  0
 14  5  1  0
 37 17  1  0
 14  9  1  0
  1 38  1  0
  1 39  1  0
  1 40  1  0
  2 41  1  1
  3 42  1  0
  3 43  1  0
  6 44  1  0
  8 45  1  0
 10 46  1  0
 11 47  1  0
 12 48  1  0
 13 49  1  0
 18 50  1  0
 18 51  1  0
 20 52  1  0
 20 53  1  0
 23 54  1  0
 24 55  1  0
 24 56  1  0
 27 57  1  0
 27 58  1  0
 28 59  1  0
 28 60  1  0
 32 61  1  0
 33 62  1  0
 36 63  1  0
M  END
>  <RMSD>  (64) 
0.0689903114007168

$$$$

     RDKit          3D

 52 54  0  0  0  0  0  0  0  0999 V2000
   -8.1768    1.2319  -26.5542 C   0  0  0  0  0  0  0  0  0  0  0  0
   -8.2500   -0.3025  -26.4707 C   0  0  0  0  0  0  0  0  0  0  0  0
   -8.3361   -0.8887  -27.8804 C   0  0  0  0  0  0  0  0  0  0  0  0
   -9.4083   -0.6776  -25.5276 C   0  0  0  0  0  0  0  0  0  0  0  0
   -9.7414   -2.1606  -25.1925 C   0  0  0  0  0  0  0  0  0  0  0  0
  -10.6367   -2.8415  -26.2378 C   0  0  0  0  0  0  0  0  0  0  0  0
  -10.5744   -2.1273  -23.8744 C   0  0  0  0  0  0  0  0  0  0  0  0
   -9.8965   -2.8655  -22.7365 C   0  0  0  0  0  0  0  0  0  0  0  0
   -8.5019   -2.4621  -22.6171 N   0  0  0  0  0  0  0  0  0  0  0  0
   -8.0973   -1.9198  -21.4265 C   0  0  0  0  0  0  0  0  0  0  0  0
   -8.8818   -1.3251  -20.7022 O   0  0  0  0  0  0  0  0  0  0  0  0
   -6.6678   -2.2090  -20.9710 C   0  0  0  0  0  0  0  0  0  0  0  0
   -6.1031   -1.2283  -19.9843 C   0  0  0  0  0  0  0  0  0  0  0  0
   -6.5197   -1.2582  -18.6752 C   0  0  0  0  0  0  0  0  0  0  0  0
   -6.0285   -0.4788  -17.6754 N   0  0  0  0  0  0  0  0  0  0  0  0
   -5.0947    0.3831  -18.0072 C   0  0  0  0  0  0  0  0  0  0  0  0
   -4.5750    0.5386  -19.3223 C   0  0  0  0  0  0  0  0  0  0  0  0
   -3.5531    1.4752  -19.6309 C   0  0  0  0  0  0  0  0  0  0  0  0
   -3.1110    1.6176  -20.9175 C   0  0  0  0  0  0  0  0  0  0  0  0
   -3.6375    0.8134  -21.9502 C   0  0  0  0  0  0  0  0  0  0  0  0
   -4.6208   -0.1040  -21.6756 C   0  0  0  0  0  0  0  0  0  0  0  0
   -5.1041   -0.2809  -20.3502 C   0  0  0  0  0  0  0  0  0  0  0  0
   -7.6413   -2.6433  -23.7825 C   0  0  0  0  0  0  0  0  0  0  0  0
   -8.4913   -3.0399  -24.9875 C   0  0  0  0  0  0  0  0  0  0  0  0
   -9.1311    1.6599  -26.8966 H   0  0  0  0  0  0  0  0  0  0  0  0
   -7.9460    1.6770  -25.5800 H   0  0  0  0  0  0  0  0  0  0  0  0
   -7.4099    1.5593  -27.2646 H   0  0  0  0  0  0  0  0  0  0  0  0
   -7.3221   -0.6582  -25.9962 H   0  0  0  0  0  0  0  0  0  0  0  0
   -7.3941   -0.7690  -28.4316 H   0  0  0  0  0  0  0  0  0  0  0  0
   -8.5785   -1.9563  -27.8823 H   0  0  0  0  0  0  0  0  0  0  0  0
   -9.1077   -0.3483  -28.4293 H   0  0  0  0  0  0  0  0  0  0  0  0
  -10.3498   -0.2116  -25.8695 H   0  0  0  0  0  0  0  0  0  0  0  0
   -9.1685   -0.1768  -24.5767 H   0  0  0  0  0  0  0  0  0  0  0  0
  -11.6329   -2.3843  -26.2183 H   0  0  0  0  0  0  0  0  0  0  0  0
  -10.2583   -2.8061  -27.2628 H   0  0  0  0  0  0  0  0  0  0  0  0
  -10.7578   -3.8982  -25.9877 H   0  0  0  0  0  0  0  0  0  0  0  0
  -11.5778   -2.5371  -24.0382 H   0  0  0  0  0  0  0  0  0  0  0  0
  -10.7189   -1.0889  -23.5586 H   0  0  0  0  0  0  0  0  0  0  0  0
  -10.3839   -2.6267  -21.7918 H   0  0  0  0  0  0  0  0  0  0  0  0
   -9.9475   -3.9529  -22.8883 H   0  0  0  0  0  0  0  0  0  0  0  0
   -6.0106   -2.3420  -21.8301 H   0  0  0  0  0  0  0  0  0  0  0  0
   -6.7253   -3.1969  -20.4866 H   0  0  0  0  0  0  0  0  0  0  0  0
   -7.2861   -1.9712  -18.3764 H   0  0  0  0  0  0  0  0  0  0  0  0
   -4.6944    1.0045  -17.2043 H   0  0  0  0  0  0  0  0  0  0  0  0
   -3.1412    2.0786  -18.8256 H   0  0  0  0  0  0  0  0  0  0  0  0
   -2.3558    2.3613  -21.1556 H   0  0  0  0  0  0  0  0  0  0  0  0
   -3.2660    0.9284  -22.9667 H   0  0  0  0  0  0  0  0  0  0  0  0
   -5.0257   -0.6975  -22.4901 H   0  0  0  0  0  0  0  0  0  0  0  0
   -6.8903   -3.4199  -23.5886 H   0  0  0  0  0  0  0  0  0  0  0  0
   -7.0859   -1.7193  -24.0029 H   0  0  0  0  0  0  0  0  0  0  0  0
   -8.8253   -4.0724  -24.8271 H   0  0  0  0  0  0  0  0  0  0  0  0
   -7.8772   -3.0605  -25.8933 H   0  0  0  0  0  0  0  0  0  0  0  0
  1  2  1  0
  2  3  1  0
  2  4  1  0
  4  5  1  0
  5  6  1  0
  5  7  1  0
  7  8  1  0
  8  9  1  0
  9 10  1  0
 10 11  2  0
 10 12  1  0
 12 13  1  0
 13 14  2  0
 14 15  1  0
 15 16  2  0
 16 17  1  0
 17 18  2  0
 18 19  1  0
 19 20  2  0
 20 21  1  0
 21 22  2  0
  9 23  1  0
 23 24  1  0
 24  5  1  0
 22 13  1  0
 22 17  1  0
  1 25  1  0
  1 26  1  0
  1 27  1  0
  2 28  1  0
  3 29  1  0
  3 30  1  0
  3 31  1  0
  4 32  1  0
  4 33  1  0
  6 34  1  0
  6 35  1  0
  6 36  1  0
  7 37  1  0
  7 38  1  0
  8 39  1  0
  8 40  1  0
 12 41  1  0
 12 42  1  0
 14 43  1  0
 16 44  1  0
 18 45  1  0
 19 46  1  0
 20 47  1  0
 21 48  1  0
 23 49  1  0
 23 50  1  0
 24 51  1  0
 24 52  1  0
M  END
>  <RMSD>  (65) 
0.036005321516068854

$$$$

     RDKit          3D

 68 73  0  0  0  0  0  0  0  0999 V2000
   -6.7725    2.5877  -23.1832 C   0  0  0  0  0  0  0  0  0  0  0  0
   -7.3165    1.3866  -23.7846 N   0  0  0  0  0  0  0  0  0  0  0  0
   -6.8498    0.9913  -24.9892 C   0  0  0  0  0  0  0  0  0  0  0  0
   -6.0508    1.6467  -25.6410 O   0  0  0  0  0  0  0  0  0  0  0  0
   -7.3770   -0.3297  -25.5706 C   0  0  0  0  0  0  0  0  0  0  0  0
   -8.1708   -1.1534  -24.6851 N   0  0  0  0  0  0  0  0  0  0  0  0
   -7.5800   -2.3356  -24.0833 C   0  0  0  0  0  0  0  0  0  0  0  0
   -8.2284   -2.6628  -22.7071 C   0  0  2  0  0  0  0  0  0  0  0  0
   -7.8523   -1.5462  -21.7021 C   0  0  0  0  0  0  0  0  0  0  0  0
   -8.3503   -0.4398  -21.6064 O   0  0  0  0  0  0  0  0  0  0  0  0
   -6.7974   -1.9964  -20.9430 N   0  0  0  0  0  0  0  0  0  0  0  0
   -6.1645   -1.1618  -19.9879 C   0  0  0  0  0  0  0  0  0  0  0  0
   -6.5489   -1.2363  -18.6743 C   0  0  0  0  0  0  0  0  0  0  0  0
   -6.0178   -0.4896  -17.6742 N   0  0  0  0  0  0  0  0  0  0  0  0
   -5.0746    0.3601  -18.0087 C   0  0  0  0  0  0  0  0  0  0  0  0
   -4.5835    0.5423  -19.3332 C   0  0  0  0  0  0  0  0  0  0  0  0
   -3.5628    1.4847  -19.6324 C   0  0  0  0  0  0  0  0  0  0  0  0
   -3.1010    1.6188  -20.9130 C   0  0  0  0  0  0  0  0  0  0  0  0
   -3.6316    0.8242  -21.9542 C   0  0  0  0  0  0  0  0  0  0  0  0
   -4.6270   -0.0863  -21.6929 C   0  0  0  0  0  0  0  0  0  0  0  0
   -5.1360   -0.2462  -20.3701 C   0  0  0  0  0  0  0  0  0  0  0  0
   -6.3263   -3.3179  -21.3169 C   0  0  0  0  0  0  0  0  0  0  0  0
   -7.5566   -3.8897  -22.0344 C   0  0  2  0  0  0  0  0  0  0  0  0
   -7.2756   -5.0823  -22.9668 C   0  0  0  0  0  0  0  0  0  0  0  0
   -6.9552   -6.3137  -22.2783 N   0  0  0  0  0  0  0  0  0  0  0  0
   -5.7143   -6.5089  -21.6792 C   0  0  0  0  0  0  0  0  0  0  0  0
   -4.5114   -6.0040  -22.2097 C   0  0  0  0  0  0  0  0  0  0  0  0
   -3.2935   -6.4046  -21.6747 C   0  0  0  0  0  0  0  0  0  0  0  0
   -3.2461   -7.1803  -20.5239 C   0  0  0  0  0  0  0  0  0  0  0  0
   -4.4386   -7.5339  -19.9010 C   0  0  0  0  0  0  0  0  0  0  0  0
   -5.6592   -7.2546  -20.4903 C   0  0  0  0  0  0  0  0  0  0  0  0
   -9.7276   -2.7437  -22.9152 C   0  0  0  0  0  0  0  0  0  0  0  0
  -10.5545   -3.6220  -22.2000 C   0  0  0  0  0  0  0  0  0  0  0  0
  -11.9283   -3.5493  -22.3517 C   0  0  0  0  0  0  0  0  0  0  0  0
  -12.9442   -4.6307  -21.4437 Cl  0  0  0  0  0  0  0  0  0  0  0  0
  -12.5276   -2.6237  -23.2048 C   0  0  0  0  0  0  0  0  0  0  0  0
  -11.7190   -1.7749  -23.9296 C   0  0  0  0  0  0  0  0  0  0  0  0
  -10.3340   -1.8468  -23.8073 C   0  0  0  0  0  0  0  0  0  0  0  0
   -9.5223   -0.9420  -24.6812 C   0  0  0  0  0  0  0  0  0  0  0  0
  -10.0360   -0.0590  -25.3553 O   0  0  0  0  0  0  0  0  0  0  0  0
   -6.8772    3.4482  -23.8553 H   0  0  0  0  0  0  0  0  0  0  0  0
   -7.3124    2.7921  -22.2548 H   0  0  0  0  0  0  0  0  0  0  0  0
   -5.7062    2.4562  -22.9555 H   0  0  0  0  0  0  0  0  0  0  0  0
   -7.8387    0.7480  -23.1860 H   0  0  0  0  0  0  0  0  0  0  0  0
   -7.9771   -0.0793  -26.4547 H   0  0  0  0  0  0  0  0  0  0  0  0
   -6.5048   -0.8905  -25.9221 H   0  0  0  0  0  0  0  0  0  0  0  0
   -7.7043   -3.1939  -24.7594 H   0  0  0  0  0  0  0  0  0  0  0  0
   -6.5058   -2.1492  -23.9623 H   0  0  0  0  0  0  0  0  0  0  0  0
   -7.3347   -1.9359  -18.3947 H   0  0  0  0  0  0  0  0  0  0  0  0
   -4.6467    0.9626  -17.2078 H   0  0  0  0  0  0  0  0  0  0  0  0
   -3.1632    2.0916  -18.8239 H   0  0  0  0  0  0  0  0  0  0  0  0
   -2.3201    2.3381  -21.1403 H   0  0  0  0  0  0  0  0  0  0  0  0
   -3.2674    0.9528  -22.9718 H   0  0  0  0  0  0  0  0  0  0  0  0
   -5.0264   -0.6852  -22.5076 H   0  0  0  0  0  0  0  0  0  0  0  0
   -6.0287   -3.8958  -20.4371 H   0  0  0  0  0  0  0  0  0  0  0  0
   -5.4485   -3.2763  -21.9856 H   0  0  0  0  0  0  0  0  0  0  0  0
   -8.2161   -4.2141  -21.2195 H   0  0  0  0  0  0  0  0  0  0  0  0
   -8.1662   -5.2557  -23.5892 H   0  0  0  0  0  0  0  0  0  0  0  0
   -6.4447   -4.8260  -23.6442 H   0  0  0  0  0  0  0  0  0  0  0  0
   -7.7253   -6.6801  -21.7190 H   0  0  0  0  0  0  0  0  0  0  0  0
   -4.4959   -5.2871  -23.0295 H   0  0  0  0  0  0  0  0  0  0  0  0
   -2.3615   -6.1038  -22.1487 H   0  0  0  0  0  0  0  0  0  0  0  0
   -2.2935   -7.5233  -20.1375 H   0  0  0  0  0  0  0  0  0  0  0  0
   -4.4013   -8.0129  -18.9294 H   0  0  0  0  0  0  0  0  0  0  0  0
   -6.5809   -7.5903  -20.0153 H   0  0  0  0  0  0  0  0  0  0  0  0
  -10.1533   -4.3654  -21.5201 H   0  0  0  0  0  0  0  0  0  0  0  0
  -13.6062   -2.5750  -23.3010 H   0  0  0  0  0  0  0  0  0  0  0  0
  -12.1295   -1.0365  -24.6092 H   0  0  0  0  0  0  0  0  0  0  0  0
  1  2  1  0
  2  3  1  0
  3  4  2  0
  3  5  1  0
  5  6  1  0
  6  7  1  0
  8  7  1  6
  8  9  1  0
  9 10  2  0
  9 11  1  0
 11 12  1  0
 12 13  2  0
 13 14  1  0
 14 15  2  0
 15 16  1  0
 16 17  2  0
 17 18  1  0
 18 19  2  0
 19 20  1  0
 20 21  2  0
 11 22  1  0
 22 23  1  0
 23 24  1  0
 24 25  1  0
 25 26  1  0
 26 27  2  0
 27 28  1  0
 28 29  2  0
 29 30  1  0
 30 31  2  0
  8 32  1  0
 32 33  2  0
 33 34  1  0
 34 35  1  0
 34 36  2  0
 36 37  1  0
 37 38  2  0
 38 39  1  0
 39 40  2  0
 39  6  1  0
 23  8  1  0
 31 26  1  0
 38 32  1  0
 21 12  1  0
 21 16  1  0
  1 41  1  0
  1 42  1  0
  1 43  1  0
  2 44  1  0
  5 45  1  0
  5 46  1  0
  7 47  1  0
  7 48  1  0
 13 49  1  0
 15 50  1  0
 17 51  1  0
 18 52  1  0
 19 53  1  0
 20 54  1  0
 22 55  1  0
 22 56  1  0
 23 57  1  1
 24 58  1  0
 24 59  1  0
 25 60  1  0
 27 61  1  0
 28 62  1  0
 29 63  1  0
 30 64  1  0
 31 65  1  0
 33 66  1  0
 36 67  1  0
 37 68  1  0
M  END
>  <RMSD>  (66) 
0.062453354328469816

$$$$

     RDKit          3D

 56 60  0  0  0  0  0  0  0  0999 V2000
   -6.7629    2.6512  -23.2217 C   0  0  0  0  0  0  0  0  0  0  0  0
   -7.3101    1.4746  -23.8591 N   0  0  0  0  0  0  0  0  0  0  0  0
   -6.8326    1.0639  -25.0526 C   0  0  0  0  0  0  0  0  0  0  0  0
   -6.0153    1.6969  -25.7059 O   0  0  0  0  0  0  0  0  0  0  0  0
   -7.3271   -0.2874  -25.5806 C   0  0  0  0  0  0  0  0  0  0  0  0
   -8.1444   -1.0840  -24.6885 N   0  0  0  0  0  0  0  0  0  0  0  0
   -7.5806   -2.2946  -24.1193 C   0  0  0  0  0  0  0  0  0  0  0  0
   -8.2277   -2.6418  -22.7536 C   0  0  2  0  0  0  0  0  0  0  0  0
   -7.8765   -1.5373  -21.7239 C   0  0  0  0  0  0  0  0  0  0  0  0
   -8.4077   -0.4515  -21.5919 O   0  0  0  0  0  0  0  0  0  0  0  0
   -6.8129   -1.9804  -20.9681 N   0  0  0  0  0  0  0  0  0  0  0  0
   -6.1774   -1.1521  -20.0045 C   0  0  0  0  0  0  0  0  0  0  0  0
   -6.5467   -1.2430  -18.6871 C   0  0  0  0  0  0  0  0  0  0  0  0
   -6.0146   -0.5020  -17.6825 N   0  0  0  0  0  0  0  0  0  0  0  0
   -5.0749    0.3596  -17.9999 C   0  0  0  0  0  0  0  0  0  0  0  0
   -4.5715    0.5405  -19.3221 C   0  0  0  0  0  0  0  0  0  0  0  0
   -3.5537    1.4876  -19.6293 C   0  0  0  0  0  0  0  0  0  0  0  0
   -3.0982    1.6213  -20.9141 C   0  0  0  0  0  0  0  0  0  0  0  0
   -3.6263    0.8172  -21.9517 C   0  0  0  0  0  0  0  0  0  0  0  0
   -4.6201   -0.0915  -21.6833 C   0  0  0  0  0  0  0  0  0  0  0  0
   -5.1269   -0.2475  -20.3620 C   0  0  0  0  0  0  0  0  0  0  0  0
   -6.3449   -3.3018  -21.3486 C   0  0  0  0  0  0  0  0  0  0  0  0
   -7.5533   -3.8784  -22.0982 C   0  0  2  0  0  0  0  0  0  0  0  0
   -7.2248   -5.0396  -23.0266 C   0  0  0  0  0  0  0  0  0  0  0  0
   -9.7232   -2.7181  -22.9787 C   0  0  0  0  0  0  0  0  0  0  0  0
  -10.5502   -3.5900  -22.2610 C   0  0  0  0  0  0  0  0  0  0  0  0
  -11.9250   -3.5107  -22.3999 C   0  0  0  0  0  0  0  0  0  0  0  0
  -12.9249   -4.5735  -21.4488 Cl  0  0  0  0  0  0  0  0  0  0  0  0
  -12.5238   -2.5852  -23.2571 C   0  0  0  0  0  0  0  0  0  0  0  0
  -11.7095   -1.7326  -23.9818 C   0  0  0  0  0  0  0  0  0  0  0  0
  -10.3203   -1.7949  -23.8538 C   0  0  0  0  0  0  0  0  0  0  0  0
   -9.4897   -0.8387  -24.6623 C   0  0  0  0  0  0  0  0  0  0  0  0
   -9.9715    0.1216  -25.2484 O   0  0  0  0  0  0  0  0  0  0  0  0
   -6.8664    3.5419  -23.8494 H   0  0  0  0  0  0  0  0  0  0  0  0
   -5.6997    2.5094  -23.0000 H   0  0  0  0  0  0  0  0  0  0  0  0
   -7.2925    2.8049  -22.2802 H   0  0  0  0  0  0  0  0  0  0  0  0
   -8.1035    1.0194  -23.4279 H   0  0  0  0  0  0  0  0  0  0  0  0
   -6.4308   -0.8612  -25.8355 H   0  0  0  0  0  0  0  0  0  0  0  0
   -7.8643   -0.1101  -26.5191 H   0  0  0  0  0  0  0  0  0  0  0  0
   -6.5066   -2.1339  -23.9837 H   0  0  0  0  0  0  0  0  0  0  0  0
   -7.7152   -3.1349  -24.8166 H   0  0  0  0  0  0  0  0  0  0  0  0
   -7.3291   -1.9383  -18.3915 H   0  0  0  0  0  0  0  0  0  0  0  0
   -4.6577    0.9644  -17.1927 H   0  0  0  0  0  0  0  0  0  0  0  0
   -3.1552    2.1093  -18.8286 H   0  0  0  0  0  0  0  0  0  0  0  0
   -2.3299    2.3520  -21.1557 H   0  0  0  0  0  0  0  0  0  0  0  0
   -3.2746    0.9425  -22.9746 H   0  0  0  0  0  0  0  0  0  0  0  0
   -5.0340   -0.7018  -22.4827 H   0  0  0  0  0  0  0  0  0  0  0  0
   -5.4576   -3.2794  -22.0057 H   0  0  0  0  0  0  0  0  0  0  0  0
   -6.0807   -3.8838  -20.4629 H   0  0  0  0  0  0  0  0  0  0  0  0
   -8.2333   -4.2429  -21.3257 H   0  0  0  0  0  0  0  0  0  0  0  0
   -6.8689   -5.9126  -22.4708 H   0  0  0  0  0  0  0  0  0  0  0  0
   -6.4453   -4.7652  -23.7427 H   0  0  0  0  0  0  0  0  0  0  0  0
   -8.0970   -5.3503  -23.6104 H   0  0  0  0  0  0  0  0  0  0  0  0
  -10.1293   -4.3346  -21.5933 H   0  0  0  0  0  0  0  0  0  0  0  0
  -13.6074   -2.5363  -23.3320 H   0  0  0  0  0  0  0  0  0  0  0  0
  -12.1397   -1.0009  -24.6588 H   0  0  0  0  0  0  0  0  0  0  0  0
  1  2  1  0
  2  3  1  0
  3  4  2  0
  3  5  1  0
  5  6  1  0
  6  7  1  0
  8  7  1  6
  8  9  1  0
  9 10  2  0
  9 11  1  0
 11 12  1  0
 12 13  2  0
 13 14  1  0
 14 15  2  0
 15 16  1  0
 16 17  2  0
 17 18  1  0
 18 19  2  0
 19 20  1  0
 20 21  2  0
 11 22  1  0
 22 23  1  0
 23 24  1  0
  8 25  1  0
 25 26  2  0
 26 27  1  0
 27 28  1  0
 27 29  2  0
 29 30  1  0
 30 31  2  0
 31 32  1  0
 32 33  2  0
 32  6  1  0
 23  8  1  0
 31 25  1  0
 21 12  1  0
 21 16  1  0
  1 34  1  0
  1 35  1  0
  1 36  1  0
  2 37  1  0
  5 38  1  0
  5 39  1  0
  7 40  1  0
  7 41  1  0
 13 42  1  0
 15 43  1  0
 17 44  1  0
 18 45  1  0
 19 46  1  0
 20 47  1  0
 22 48  1  0
 22 49  1  0
 23 50  1  1
 24 51  1  0
 24 52  1  0
 24 53  1  0
 26 54  1  0
 29 55  1  0
 30 56  1  0
M  END
>  <RMSD>  (67) 
0.05695479367165961

$$$$

     RDKit          3D

 45 49  0  0  0  0  0  0  0  0999 V2000
   -9.4846   -1.8260  -23.5343 C   0  0  0  0  0  0  0  0  0  0  0  0
   -8.3683   -2.1226  -22.6532 N   0  0  0  0  0  0  0  0  0  0  0  0
   -7.9836   -1.2545  -21.6675 C   0  0  0  0  0  0  0  0  0  0  0  0
   -8.4468   -0.1676  -21.4075 O   0  0  0  0  0  0  0  0  0  0  0  0
   -6.9354   -1.8706  -20.9672 N   0  0  0  0  0  0  0  0  0  0  0  0
   -6.1841   -1.1543  -19.9844 C   0  0  0  0  0  0  0  0  0  0  0  0
   -6.5390   -1.2297  -18.6659 C   0  0  0  0  0  0  0  0  0  0  0  0
   -5.9945   -0.4744  -17.6752 N   0  0  0  0  0  0  0  0  0  0  0  0
   -5.0704    0.3929  -18.0088 C   0  0  0  0  0  0  0  0  0  0  0  0
   -4.5686    0.5487  -19.3312 C   0  0  0  0  0  0  0  0  0  0  0  0
   -3.5597    1.4970  -19.6504 C   0  0  0  0  0  0  0  0  0  0  0  0
   -3.0913    1.5936  -20.9309 C   0  0  0  0  0  0  0  0  0  0  0  0
   -3.6025    0.7480  -21.9434 C   0  0  0  0  0  0  0  0  0  0  0  0
   -4.5877   -0.1648  -21.6623 C   0  0  0  0  0  0  0  0  0  0  0  0
   -5.1166   -0.2680  -20.3499 C   0  0  0  0  0  0  0  0  0  0  0  0
   -6.6975   -3.1631  -21.4310 C   0  0  0  0  0  0  0  0  0  0  0  0
   -5.9046   -3.9467  -20.9675 O   0  0  0  0  0  0  0  0  0  0  0  0
   -7.6405   -3.3653  -22.6208 C   0  0  0  0  0  0  0  0  0  0  0  0
   -6.9641   -3.8948  -23.9066 C   0  0  0  0  0  0  0  0  0  0  0  0
   -7.6944   -5.1832  -23.7911 N   0  0  0  0  0  0  0  0  0  0  0  0
   -8.6623   -5.6358  -25.1059 S   0  0  0  0  0  0  0  0  0  0  0  0
   -9.5307   -6.6916  -24.6292 O   0  0  0  0  0  0  0  0  0  0  0  0
   -9.2033   -4.4222  -25.7148 O   0  0  0  0  0  0  0  0  0  0  0  0
   -7.5770   -6.4017  -26.2874 C   0  0  0  0  0  0  0  0  0  0  0  0
   -8.2082   -7.4222  -27.2077 C   0  0  0  0  0  0  0  0  0  0  0  0
   -7.2724   -7.8672  -26.1241 C   0  0  0  0  0  0  0  0  0  0  0  0
   -8.4471   -4.6782  -22.5955 C   0  0  0  0  0  0  0  0  0  0  0  0
   -9.2297   -1.0140  -24.2228 H   0  0  0  0  0  0  0  0  0  0  0  0
  -10.3397   -1.5027  -22.9350 H   0  0  0  0  0  0  0  0  0  0  0  0
   -9.7561   -2.7102  -24.1164 H   0  0  0  0  0  0  0  0  0  0  0  0
   -7.3030   -1.9348  -18.3499 H   0  0  0  0  0  0  0  0  0  0  0  0
   -4.6733    1.0282  -17.2132 H   0  0  0  0  0  0  0  0  0  0  0  0
   -3.1851    2.1475  -18.8611 H   0  0  0  0  0  0  0  0  0  0  0  0
   -2.3241    2.3217  -21.1829 H   0  0  0  0  0  0  0  0  0  0  0  0
   -3.2226    0.8326  -22.9569 H   0  0  0  0  0  0  0  0  0  0  0  0
   -4.9884   -0.8137  -22.4359 H   0  0  0  0  0  0  0  0  0  0  0  0
   -5.8869   -4.0397  -23.8108 H   0  0  0  0  0  0  0  0  0  0  0  0
   -7.2202   -3.3203  -24.8006 H   0  0  0  0  0  0  0  0  0  0  0  0
   -6.8178   -5.7417  -26.6896 H   0  0  0  0  0  0  0  0  0  0  0  0
   -9.2719   -7.6160  -27.0816 H   0  0  0  0  0  0  0  0  0  0  0  0
   -7.8641   -7.4533  -28.2412 H   0  0  0  0  0  0  0  0  0  0  0  0
   -7.6978   -8.3670  -25.2557 H   0  0  0  0  0  0  0  0  0  0  0  0
   -6.2774   -8.2045  -26.4138 H   0  0  0  0  0  0  0  0  0  0  0  0
   -9.5297   -4.5894  -22.7404 H   0  0  0  0  0  0  0  0  0  0  0  0
   -8.2219   -5.2285  -21.6908 H   0  0  0  0  0  0  0  0  0  0  0  0
  1  2  1  0
  2  3  1  0
  3  4  2  0
  3  5  1  0
  5  6  1  0
  6  7  2  0
  7  8  1  0
  8  9  2  0
  9 10  1  0
 10 11  2  0
 11 12  1  0
 12 13  2  0
 13 14  1  0
 14 15  2  0
  5 16  1  0
 16 17  2  0
 16 18  1  0
 18 19  1  0
 19 20  1  0
 20 21  1  0
 21 22  2  0
 21 23  2  0
 21 24  1  0
 24 25  1  0
 25 26  1  0
 20 27  1  0
 18  2  1  0
 26 24  1  0
 15  6  1  0
 27 18  1  0
 15 10  1  0
  1 28  1  0
  1 29  1  0
  1 30  1  0
  7 31  1  0
  9 32  1  0
 11 33  1  0
 12 34  1  0
 13 35  1  0
 14 36  1  0
 19 37  1  0
 19 38  1  0
 24 39  1  0
 25 40  1  0
 25 41  1  0
 26 42  1  0
 26 43  1  0
 27 44  1  0
 27 45  1  0
M  END
>  <RMSD>  (68) 
1.5758648719290522

$$$$

     RDKit          3D

 57 62  0  0  0  0  0  0  0  0999 V2000
   -7.2345   -5.0321  -23.0338 C   0  0  0  0  0  0  0  0  0  0  0  0
   -7.5629   -3.8726  -22.1012 C   0  0  1  0  0  0  0  0  0  0  0  0
   -6.3515   -3.2988  -21.3536 C   0  0  0  0  0  0  0  0  0  0  0  0
   -6.8112   -1.9769  -20.9723 N   0  0  0  0  0  0  0  0  0  0  0  0
   -6.1764   -1.1530  -20.0037 C   0  0  0  0  0  0  0  0  0  0  0  0
   -6.5478   -1.2423  -18.6872 C   0  0  0  0  0  0  0  0  0  0  0  0
   -6.0139   -0.5016  -17.6830 N   0  0  0  0  0  0  0  0  0  0  0  0
   -5.0754    0.3585  -18.0017 C   0  0  0  0  0  0  0  0  0  0  0  0
   -4.5726    0.5418  -19.3223 C   0  0  0  0  0  0  0  0  0  0  0  0
   -3.5538    1.4893  -19.6332 C   0  0  0  0  0  0  0  0  0  0  0  0
   -3.1008    1.6244  -20.9157 C   0  0  0  0  0  0  0  0  0  0  0  0
   -3.6295    0.8187  -21.9503 C   0  0  0  0  0  0  0  0  0  0  0  0
   -4.6144   -0.1011  -21.6766 C   0  0  0  0  0  0  0  0  0  0  0  0
   -5.1239   -0.2509  -20.3602 C   0  0  0  0  0  0  0  0  0  0  0  0
   -7.8831   -1.5283  -21.7196 C   0  0  0  0  0  0  0  0  0  0  0  0
   -8.4164   -0.4539  -21.5650 O   0  0  0  0  0  0  0  0  0  0  0  0
   -8.2343   -2.6328  -22.7528 C   0  0  1  0  0  0  0  0  0  0  0  0
   -7.5872   -2.2826  -24.1241 C   0  0  0  0  0  0  0  0  0  0  0  0
   -8.1470   -1.0692  -24.6869 N   0  0  0  0  0  0  0  0  0  0  0  0
   -7.3338   -0.2241  -25.5521 C   0  0  0  0  0  0  0  0  0  0  0  0
   -7.0974    1.1706  -25.0154 C   0  0  0  0  0  0  0  0  0  0  0  0
   -6.7434    1.2540  -23.7312 N   0  0  0  0  0  0  0  0  0  0  0  0
   -6.5312    2.4853  -23.2674 C   0  0  0  0  0  0  0  0  0  0  0  0
   -6.6570    3.6212  -24.0465 C   0  0  0  0  0  0  0  0  0  0  0  0
   -7.0143    3.4104  -25.3684 C   0  0  0  0  0  0  0  0  0  0  0  0
   -7.2176    2.1918  -25.8627 N   0  0  0  0  0  0  0  0  0  0  0  0
   -9.4896   -0.8192  -24.6463 C   0  0  0  0  0  0  0  0  0  0  0  0
   -9.9846    0.1278  -25.2392 O   0  0  0  0  0  0  0  0  0  0  0  0
  -10.3256   -1.7802  -23.8446 C   0  0  0  0  0  0  0  0  0  0  0  0
  -11.7160   -1.7189  -23.9738 C   0  0  0  0  0  0  0  0  0  0  0  0
  -12.5331   -2.5731  -23.2563 C   0  0  0  0  0  0  0  0  0  0  0  0
  -11.9234   -3.4986  -22.4128 C   0  0  0  0  0  0  0  0  0  0  0  0
  -12.6978   -4.3319  -21.6971 F   0  0  0  0  0  0  0  0  0  0  0  0
  -10.5543   -3.5858  -22.2637 C   0  0  0  0  0  0  0  0  0  0  0  0
   -9.7289   -2.7093  -22.9762 C   0  0  0  0  0  0  0  0  0  0  0  0
   -8.1096   -5.3405  -23.6161 H   0  0  0  0  0  0  0  0  0  0  0  0
   -6.8784   -5.9059  -22.4778 H   0  0  0  0  0  0  0  0  0  0  0  0
   -6.4539   -4.7554  -23.7500 H   0  0  0  0  0  0  0  0  0  0  0  0
   -8.2379   -4.2431  -21.3245 H   0  0  0  0  0  0  0  0  0  0  0  0
   -6.0884   -3.8838  -20.4687 H   0  0  0  0  0  0  0  0  0  0  0  0
   -5.4652   -3.2731  -22.0125 H   0  0  0  0  0  0  0  0  0  0  0  0
   -7.3317   -1.9382  -18.3933 H   0  0  0  0  0  0  0  0  0  0  0  0
   -4.6546    0.9627  -17.1942 H   0  0  0  0  0  0  0  0  0  0  0  0
   -3.1536    2.1090  -18.8324 H   0  0  0  0  0  0  0  0  0  0  0  0
   -2.3311    2.3549  -21.1545 H   0  0  0  0  0  0  0  0  0  0  0  0
   -3.2731    0.9398  -22.9693 H   0  0  0  0  0  0  0  0  0  0  0  0
   -5.0400   -0.6975  -22.4802 H   0  0  0  0  0  0  0  0  0  0  0  0
   -7.7275   -3.1270  -24.8201 H   0  0  0  0  0  0  0  0  0  0  0  0
   -6.5112   -2.1265  -23.9838 H   0  0  0  0  0  0  0  0  0  0  0  0
   -6.3770   -0.7335  -25.6807 H   0  0  0  0  0  0  0  0  0  0  0  0
   -7.7898   -0.1576  -26.5374 H   0  0  0  0  0  0  0  0  0  0  0  0
   -6.2445    2.5637  -22.2208 H   0  0  0  0  0  0  0  0  0  0  0  0
   -6.4825    4.6141  -23.6540 H   0  0  0  0  0  0  0  0  0  0  0  0
   -7.1396    4.2381  -26.0630 H   0  0  0  0  0  0  0  0  0  0  0  0
  -12.1529   -0.9902  -24.6479 H   0  0  0  0  0  0  0  0  0  0  0  0
  -13.6184   -2.5359  -23.3220 H   0  0  0  0  0  0  0  0  0  0  0  0
  -10.1517   -4.3386  -21.5929 H   0  0  0  0  0  0  0  0  0  0  0  0
  1  2  1  0
  2  3  1  0
  3  4  1  0
  4  5  1  0
  5  6  2  0
  6  7  1  0
  7  8  2  0
  8  9  1  0
  9 10  2  0
 10 11  1  0
 11 12  2  0
 12 13  1  0
 13 14  2  0
  4 15  1  0
 15 16  2  0
 15 17  1  0
 17 18  1  6
 18 19  1  0
 19 20  1  0
 20 21  1  0
 21 22  2  0
 22 23  1  0
 23 24  2  0
 24 25  1  0
 25 26  2  0
 19 27  1  0
 27 28  2  0
 27 29  1  0
 29 30  2  0
 30 31  1  0
 31 32  2  0
 32 33  1  0
 32 34  1  0
 34 35  2  0
 17  2  1  0
 26 21  1  0
 35 29  1  0
 14  5  1  0
 35 17  1  0
 14  9  1  0
  1 36  1  0
  1 37  1  0
  1 38  1  0
  2 39  1  1
  3 40  1  0
  3 41  1  0
  6 42  1  0
  8 43  1  0
 10 44  1  0
 11 45  1  0
 12 46  1  0
 13 47  1  0
 18 48  1  0
 18 49  1  0
 20 50  1  0
 20 51  1  0
 23 52  1  0
 24 53  1  0
 25 54  1  0
 30 55  1  0
 31 56  1  0
 34 57  1  0
M  END
>  <RMSD>  (69) 
0.05627604635531863

$$$$

     RDKit          3D

 56 60  0  0  0  0  0  0  0  0999 V2000
   -6.7628    2.6515  -23.2217 C   0  0  0  0  0  0  0  0  0  0  0  0
   -7.3101    1.4748  -23.8592 N   0  0  0  0  0  0  0  0  0  0  0  0
   -6.8326    1.0641  -25.0528 C   0  0  0  0  0  0  0  0  0  0  0  0
   -6.0154    1.6975  -25.7060 O   0  0  0  0  0  0  0  0  0  0  0  0
   -7.3273   -0.2872  -25.5807 C   0  0  0  0  0  0  0  0  0  0  0  0
   -8.1443   -1.0837  -24.6879 N   0  0  0  0  0  0  0  0  0  0  0  0
   -7.5800   -2.2943  -24.1195 C   0  0  0  0  0  0  0  0  0  0  0  0
   -8.2278   -2.6412  -22.7537 C   0  0  2  0  0  0  0  0  0  0  0  0
   -7.8750   -1.5364  -21.7247 C   0  0  0  0  0  0  0  0  0  0  0  0
   -8.4078   -0.4519  -21.5916 O   0  0  0  0  0  0  0  0  0  0  0  0
   -6.8120   -1.9801  -20.9683 N   0  0  0  0  0  0  0  0  0  0  0  0
   -6.1769   -1.1523  -20.0040 C   0  0  0  0  0  0  0  0  0  0  0  0
   -6.5468   -1.2429  -18.6868 C   0  0  0  0  0  0  0  0  0  0  0  0
   -6.0148   -0.5018  -17.6822 N   0  0  0  0  0  0  0  0  0  0  0  0
   -5.0750    0.3595  -17.9999 C   0  0  0  0  0  0  0  0  0  0  0  0
   -4.5715    0.5405  -19.3221 C   0  0  0  0  0  0  0  0  0  0  0  0
   -3.5537    1.4876  -19.6294 C   0  0  0  0  0  0  0  0  0  0  0  0
   -3.0983    1.6212  -20.9142 C   0  0  0  0  0  0  0  0  0  0  0  0
   -3.6265    0.8172  -21.9517 C   0  0  0  0  0  0  0  0  0  0  0  0
   -4.6203   -0.0914  -21.6832 C   0  0  0  0  0  0  0  0  0  0  0  0
   -5.1270   -0.2475  -20.3618 C   0  0  0  0  0  0  0  0  0  0  0  0
   -6.3448   -3.3021  -21.3481 C   0  0  0  0  0  0  0  0  0  0  0  0
   -7.5526   -3.8785  -22.0979 C   0  0  2  0  0  0  0  0  0  0  0  0
   -7.2246   -5.0396  -23.0270 C   0  0  0  0  0  0  0  0  0  0  0  0
   -9.7255   -2.7169  -22.9774 C   0  0  0  0  0  0  0  0  0  0  0  0
  -10.5588   -3.5882  -22.2673 C   0  0  0  0  0  0  0  0  0  0  0  0
  -11.9370   -3.5273  -22.4010 C   0  0  0  0  0  0  0  0  0  0  0  0
  -12.5203   -2.5884  -23.2583 C   0  0  0  0  0  0  0  0  0  0  0  0
  -11.7128   -1.7275  -23.9839 C   0  0  0  0  0  0  0  0  0  0  0  0
  -10.3232   -1.7937  -23.8521 C   0  0  0  0  0  0  0  0  0  0  0  0
   -9.4900   -0.8391  -24.6608 C   0  0  0  0  0  0  0  0  0  0  0  0
   -9.9726    0.1206  -25.2473 O   0  0  0  0  0  0  0  0  0  0  0  0
   -7.2926    2.8054  -22.2798 H   0  0  0  0  0  0  0  0  0  0  0  0
   -5.6995    2.5095  -22.9997 H   0  0  0  0  0  0  0  0  0  0  0  0
   -6.8665    3.5422  -23.8496 H   0  0  0  0  0  0  0  0  0  0  0  0
   -8.1038    1.0203  -23.4282 H   0  0  0  0  0  0  0  0  0  0  0  0
   -6.4308   -0.8608  -25.8360 H   0  0  0  0  0  0  0  0  0  0  0  0
   -7.8642   -0.1097  -26.5194 H   0  0  0  0  0  0  0  0  0  0  0  0
   -6.5054   -2.1336  -23.9843 H   0  0  0  0  0  0  0  0  0  0  0  0
   -7.7146   -3.1343  -24.8174 H   0  0  0  0  0  0  0  0  0  0  0  0
   -7.3294   -1.9383  -18.3918 H   0  0  0  0  0  0  0  0  0  0  0  0
   -4.6576    0.9643  -17.1928 H   0  0  0  0  0  0  0  0  0  0  0  0
   -3.1551    2.1091  -18.8289 H   0  0  0  0  0  0  0  0  0  0  0  0
   -2.3301    2.3517  -21.1557 H   0  0  0  0  0  0  0  0  0  0  0  0
   -3.2747    0.9424  -22.9744 H   0  0  0  0  0  0  0  0  0  0  0  0
   -5.0340   -0.7015  -22.4828 H   0  0  0  0  0  0  0  0  0  0  0  0
   -6.0810   -3.8842  -20.4620 H   0  0  0  0  0  0  0  0  0  0  0  0
   -5.4578   -3.2792  -22.0056 H   0  0  0  0  0  0  0  0  0  0  0  0
   -8.2339   -4.2438  -21.3262 H   0  0  0  0  0  0  0  0  0  0  0  0
   -8.0973   -5.3497  -23.6107 H   0  0  0  0  0  0  0  0  0  0  0  0
   -6.8691   -5.9129  -22.4712 H   0  0  0  0  0  0  0  0  0  0  0  0
   -6.4446   -4.7651  -23.7430 H   0  0  0  0  0  0  0  0  0  0  0  0
  -10.1242   -4.3297  -21.6035 H   0  0  0  0  0  0  0  0  0  0  0  0
  -12.5542   -4.2068  -21.8161 H   0  0  0  0  0  0  0  0  0  0  0  0
  -13.6036   -2.5326  -23.3430 H   0  0  0  0  0  0  0  0  0  0  0  0
  -12.1394   -0.9939  -24.6645 H   0  0  0  0  0  0  0  0  0  0  0  0
  1  2  1  0
  2  3  1  0
  3  4  2  0
  3  5  1  0
  5  6  1  0
  6  7  1  0
  8  7  1  6
  8  9  1  0
  9 10  2  0
  9 11  1  0
 11 12  1  0
 12 13  2  0
 13 14  1  0
 14 15  2  0
 15 16  1  0
 16 17  2  0
 17 18  1  0
 18 19  2  0
 19 20  1  0
 20 21  2  0
 11 22  1  0
 22 23  1  0
 23 24  1  0
  8 25  1  0
 25 26  2  0
 26 27  1  0
 27 28  2  0
 28 29  1  0
 29 30  2  0
 30 31  1  0
 31 32  2  0
 31  6  1  0
 23  8  1  0
 30 25  1  0
 21 12  1  0
 21 16  1  0
  1 33  1  0
  1 34  1  0
  1 35  1  0
  2 36  1  0
  5 37  1  0
  5 38  1  0
  7 39  1  0
  7 40  1  0
 13 41  1  0
 15 42  1  0
 17 43  1  0
 18 44  1  0
 19 45  1  0
 20 46  1  0
 22 47  1  0
 22 48  1  0
 23 49  1  1
 24 50  1  0
 24 51  1  0
 24 52  1  0
 26 53  1  0
 27 54  1  0
 28 55  1  0
 29 56  1  0
M  END
>  <RMSD>  (70) 
0.05691242270847564

$$$$

     RDKit          3D

 67 72  0  0  0  0  0  0  0  0999 V2000
   -6.7708    2.6164  -23.1815 C   0  0  0  0  0  0  0  0  0  0  0  0
   -7.3327    1.4230  -23.7877 N   0  0  0  0  0  0  0  0  0  0  0  0
   -6.8565    1.0165  -24.9887 C   0  0  0  0  0  0  0  0  0  0  0  0
   -6.0454    1.6620  -25.6403 O   0  0  0  0  0  0  0  0  0  0  0  0
   -7.3873   -0.3023  -25.5671 C   0  0  0  0  0  0  0  0  0  0  0  0
   -8.1847   -1.1220  -24.6816 N   0  0  0  0  0  0  0  0  0  0  0  0
   -7.5945   -2.3106  -24.0852 C   0  0  0  0  0  0  0  0  0  0  0  0
   -8.2339   -2.6416  -22.7078 C   0  0  2  0  0  0  0  0  0  0  0  0
   -7.8424   -1.5435  -21.6879 C   0  0  0  0  0  0  0  0  0  0  0  0
   -8.3346   -0.4368  -21.5650 O   0  0  0  0  0  0  0  0  0  0  0  0
   -6.7860   -2.0090  -20.9386 N   0  0  0  0  0  0  0  0  0  0  0  0
   -6.1516   -1.1758  -19.9850 C   0  0  0  0  0  0  0  0  0  0  0  0
   -6.5488   -1.2360  -18.6737 C   0  0  0  0  0  0  0  0  0  0  0  0
   -6.0261   -0.4825  -17.6734 N   0  0  0  0  0  0  0  0  0  0  0  0
   -5.0788    0.3642  -18.0074 C   0  0  0  0  0  0  0  0  0  0  0  0
   -4.5846    0.5408  -19.3322 C   0  0  0  0  0  0  0  0  0  0  0  0
   -3.5638    1.4822  -19.6314 C   0  0  0  0  0  0  0  0  0  0  0  0
   -3.1034    1.6185  -20.9114 C   0  0  0  0  0  0  0  0  0  0  0  0
   -3.6363    0.8290  -21.9557 C   0  0  0  0  0  0  0  0  0  0  0  0
   -4.6303   -0.0816  -21.6940 C   0  0  0  0  0  0  0  0  0  0  0  0
   -5.1323   -0.2506  -20.3695 C   0  0  0  0  0  0  0  0  0  0  0  0
   -6.3339   -3.3305  -21.3252 C   0  0  0  0  0  0  0  0  0  0  0  0
   -7.5768   -3.8743  -22.0392 C   0  0  2  0  0  0  0  0  0  0  0  0
   -7.2910   -5.0743  -22.9403 C   0  0  0  0  0  0  0  0  0  0  0  0
   -6.9121   -6.2447  -22.1847 N   0  0  0  0  0  0  0  0  0  0  0  0
   -5.6075   -6.4680  -21.8416 C   0  0  0  0  0  0  0  0  0  0  0  0
   -4.4860   -5.8643  -22.3380 C   0  0  0  0  0  0  0  0  0  0  0  0
   -3.2877   -6.3479  -21.8860 N   0  0  0  0  0  0  0  0  0  0  0  0
   -3.4511   -7.3229  -21.0499 C   0  0  0  0  0  0  0  0  0  0  0  0
   -2.2752   -8.0548  -20.4949 C   0  0  0  0  0  0  0  0  0  0  0  0
   -5.1269   -7.7210  -20.7199 S   0  0  0  0  0  0  0  0  0  0  0  0
   -9.7351   -2.7100  -22.9084 C   0  0  0  0  0  0  0  0  0  0  0  0
  -10.5683   -3.5815  -22.1927 C   0  0  0  0  0  0  0  0  0  0  0  0
  -11.9408   -3.5015  -22.3472 C   0  0  0  0  0  0  0  0  0  0  0  0
  -12.9594   -4.5789  -21.4398 Cl  0  0  0  0  0  0  0  0  0  0  0  0
  -12.5414   -2.5761  -23.1980 C   0  0  0  0  0  0  0  0  0  0  0  0
  -11.7290   -1.7292  -23.9191 C   0  0  0  0  0  0  0  0  0  0  0  0
  -10.3436   -1.8089  -23.7957 C   0  0  0  0  0  0  0  0  0  0  0  0
   -9.5359   -0.9048  -24.6698 C   0  0  0  0  0  0  0  0  0  0  0  0
  -10.0576   -0.0150  -25.3319 O   0  0  0  0  0  0  0  0  0  0  0  0
   -7.3026    2.8203  -22.2479 H   0  0  0  0  0  0  0  0  0  0  0  0
   -5.7059    2.4700  -22.9588 H   0  0  0  0  0  0  0  0  0  0  0  0
   -6.8707    3.4856  -23.8420 H   0  0  0  0  0  0  0  0  0  0  0  0
   -7.8502    0.7892  -23.1873 H   0  0  0  0  0  0  0  0  0  0  0  0
   -7.9810   -0.0518  -26.4548 H   0  0  0  0  0  0  0  0  0  0  0  0
   -6.5145   -0.8641  -25.9158 H   0  0  0  0  0  0  0  0  0  0  0  0
   -7.7329   -3.1685  -24.7578 H   0  0  0  0  0  0  0  0  0  0  0  0
   -6.5173   -2.1341  -23.9747 H   0  0  0  0  0  0  0  0  0  0  0  0
   -7.3441   -1.9266  -18.3997 H   0  0  0  0  0  0  0  0  0  0  0  0
   -4.6396    0.9648  -17.2113 H   0  0  0  0  0  0  0  0  0  0  0  0
   -3.1585    2.0861  -18.8228 H   0  0  0  0  0  0  0  0  0  0  0  0
   -2.3183    2.3323  -21.1395 H   0  0  0  0  0  0  0  0  0  0  0  0
   -3.2695    0.9573  -22.9728 H   0  0  0  0  0  0  0  0  0  0  0  0
   -5.0316   -0.6752  -22.5118 H   0  0  0  0  0  0  0  0  0  0  0  0
   -6.0542   -3.9392  -20.4607 H   0  0  0  0  0  0  0  0  0  0  0  0
   -5.4538   -3.2901  -21.9914 H   0  0  0  0  0  0  0  0  0  0  0  0
   -8.2439   -4.1888  -21.2297 H   0  0  0  0  0  0  0  0  0  0  0  0
   -8.1664   -5.3033  -23.5586 H   0  0  0  0  0  0  0  0  0  0  0  0
   -6.4661   -4.8386  -23.6226 H   0  0  0  0  0  0  0  0  0  0  0  0
   -7.6299   -6.7742  -21.7116 H   0  0  0  0  0  0  0  0  0  0  0  0
   -4.4859   -5.0733  -23.0774 H   0  0  0  0  0  0  0  0  0  0  0  0
   -1.9746   -8.8701  -21.1680 H   0  0  0  0  0  0  0  0  0  0  0  0
   -2.4659   -8.4486  -19.4946 H   0  0  0  0  0  0  0  0  0  0  0  0
   -1.4380   -7.3562  -20.4712 H   0  0  0  0  0  0  0  0  0  0  0  0
  -10.1794   -4.3360  -21.5169 H   0  0  0  0  0  0  0  0  0  0  0  0
  -13.6203   -2.5296  -23.2899 H   0  0  0  0  0  0  0  0  0  0  0  0
  -12.1441   -0.9931  -24.5978 H   0  0  0  0  0  0  0  0  0  0  0  0
  1  2  1  0
  2  3  1  0
  3  4  2  0
  3  5  1  0
  5  6  1  0
  6  7  1  0
  8  7  1  6
  8  9  1  0
  9 10  2  0
  9 11  1  0
 11 12  1  0
 12 13  2  0
 13 14  1  0
 14 15  2  0
 15 16  1  0
 16 17  2  0
 17 18  1  0
 18 19  2  0
 19 20  1  0
 20 21  2  0
 11 22  1  0
 22 23  1  0
 23 24  1  0
 24 25  1  0
 25 26  1  0
 26 27  2  0
 27 28  1  0
 28 29  2  0
 29 30  1  0
 29 31  1  0
  8 32  1  0
 32 33  2  0
 33 34  1  0
 34 35  1  0
 34 36  2  0
 36 37  1  0
 37 38  2  0
 38 39  1  0
 39 40  2  0
 39  6  1  0
 23  8  1  0
 31 26  1  0
 38 32  1  0
 21 12  1  0
 21 16  1  0
  1 41  1  0
  1 42  1  0
  1 43  1  0
  2 44  1  0
  5 45  1  0
  5 46  1  0
  7 47  1  0
  7 48  1  0
 13 49  1  0
 15 50  1  0
 17 51  1  0
 18 52  1  0
 19 53  1  0
 20 54  1  0
 22 55  1  0
 22 56  1  0
 23 57  1  1
 24 58  1  0
 24 59  1  0
 25 60  1  0
 27 61  1  0
 30 62  1  0
 30 63  1  0
 30 64  1  0
 33 65  1  0
 36 66  1  0
 37 67  1  0
M  END
>  <RMSD>  (71) 
0.06714476274597858

$$$$

     RDKit          3D

 58 62  0  0  0  0  0  0  0  0999 V2000
   -6.7767    2.5949  -23.1767 C   0  0  0  0  0  0  0  0  0  0  0  0
   -7.3771    1.3808  -23.7400 N   0  0  0  0  0  0  0  0  0  0  0  0
   -6.7922    1.0205  -25.0530 C   0  0  0  0  0  0  0  0  0  0  0  0
   -7.3068   -0.3298  -25.6116 C   0  0  0  0  0  0  0  0  0  0  0  0
   -8.1247   -1.1111  -24.7017 N   0  0  0  0  0  0  0  0  0  0  0  0
   -7.5523   -2.3078  -24.1184 C   0  0  0  0  0  0  0  0  0  0  0  0
   -8.1991   -2.6344  -22.7527 C   0  0  2  0  0  0  0  0  0  0  0  0
   -7.7723   -1.5036  -21.7892 C   0  0  0  0  0  0  0  0  0  0  0  0
   -8.1272   -0.3343  -21.8314 O   0  0  0  0  0  0  0  0  0  0  0  0
   -6.8120   -1.9876  -20.9444 N   0  0  0  0  0  0  0  0  0  0  0  0
   -6.1684   -1.1574  -19.9925 C   0  0  0  0  0  0  0  0  0  0  0  0
   -6.5437   -1.2440  -18.6760 C   0  0  0  0  0  0  0  0  0  0  0  0
   -6.0186   -0.4939  -17.6781 N   0  0  0  0  0  0  0  0  0  0  0  0
   -5.0777    0.3635  -18.0048 C   0  0  0  0  0  0  0  0  0  0  0  0
   -4.5858    0.5418  -19.3323 C   0  0  0  0  0  0  0  0  0  0  0  0
   -3.5634    1.4812  -19.6358 C   0  0  0  0  0  0  0  0  0  0  0  0
   -3.0970    1.6195  -20.9154 C   0  0  0  0  0  0  0  0  0  0  0  0
   -3.6289    0.8245  -21.9532 C   0  0  0  0  0  0  0  0  0  0  0  0
   -4.6290   -0.0816  -21.6905 C   0  0  0  0  0  0  0  0  0  0  0  0
   -5.1392   -0.2427  -20.3682 C   0  0  0  0  0  0  0  0  0  0  0  0
   -6.3400   -3.3053  -21.3245 C   0  0  0  0  0  0  0  0  0  0  0  0
   -7.5445   -3.8750  -22.0855 C   0  0  2  0  0  0  0  0  0  0  0  0
   -7.2196   -5.0411  -23.0150 C   0  0  0  0  0  0  0  0  0  0  0  0
   -9.7010   -2.6989  -22.9587 C   0  0  0  0  0  0  0  0  0  0  0  0
  -10.5353   -3.5884  -22.2661 C   0  0  0  0  0  0  0  0  0  0  0  0
  -11.9015   -3.5085  -22.4303 C   0  0  0  0  0  0  0  0  0  0  0  0
  -12.6881   -4.3432  -21.7279 F   0  0  0  0  0  0  0  0  0  0  0  0
  -12.5027   -2.5865  -23.2762 C   0  0  0  0  0  0  0  0  0  0  0  0
  -11.6863   -1.7275  -23.9854 C   0  0  0  0  0  0  0  0  0  0  0  0
  -10.2989   -1.7826  -23.8405 C   0  0  0  0  0  0  0  0  0  0  0  0
   -9.4608   -0.8353  -24.6470 C   0  0  0  0  0  0  0  0  0  0  0  0
   -9.9391    0.1514  -25.2067 O   0  0  0  0  0  0  0  0  0  0  0  0
   -6.9655    3.4509  -23.8365 H   0  0  0  0  0  0  0  0  0  0  0  0
   -7.2045    2.8041  -22.1960 H   0  0  0  0  0  0  0  0  0  0  0  0
   -5.6910    2.4716  -23.0638 H   0  0  0  0  0  0  0  0  0  0  0  0
   -8.3924    1.5208  -23.8795 H   0  0  0  0  0  0  0  0  0  0  0  0
   -7.2882    0.5972  -23.0729 H   0  0  0  0  0  0  0  0  0  0  0  0
   -7.0326    1.8088  -25.7777 H   0  0  0  0  0  0  0  0  0  0  0  0
   -5.6963    0.9970  -24.9812 H   0  0  0  0  0  0  0  0  0  0  0  0
   -7.8991   -0.1690  -26.5163 H   0  0  0  0  0  0  0  0  0  0  0  0
   -6.4612   -0.9616  -25.9078 H   0  0  0  0  0  0  0  0  0  0  0  0
   -6.4775   -2.1343  -23.9799 H   0  0  0  0  0  0  0  0  0  0  0  0
   -7.6962   -3.1532  -24.8019 H   0  0  0  0  0  0  0  0  0  0  0  0
   -7.3298   -1.9405  -18.3909 H   0  0  0  0  0  0  0  0  0  0  0  0
   -4.6443    0.9640  -17.2040 H   0  0  0  0  0  0  0  0  0  0  0  0
   -3.1655    2.0879  -18.8294 H   0  0  0  0  0  0  0  0  0  0  0  0
   -2.3220    2.3465  -21.1445 H   0  0  0  0  0  0  0  0  0  0  0  0
   -3.2624    0.9493  -22.9699 H   0  0  0  0  0  0  0  0  0  0  0  0
   -5.0161   -0.6926  -22.5004 H   0  0  0  0  0  0  0  0  0  0  0  0
   -5.4563   -3.2446  -21.9806 H   0  0  0  0  0  0  0  0  0  0  0  0
   -6.0649   -3.8873  -20.4433 H   0  0  0  0  0  0  0  0  0  0  0  0
   -8.2445   -4.2126  -21.3171 H   0  0  0  0  0  0  0  0  0  0  0  0
   -6.8592   -5.9072  -22.4540 H   0  0  0  0  0  0  0  0  0  0  0  0
   -6.4359   -4.7743  -23.7331 H   0  0  0  0  0  0  0  0  0  0  0  0
   -8.0988   -5.3570  -23.5889 H   0  0  0  0  0  0  0  0  0  0  0  0
  -10.1533   -4.3436  -21.5898 H   0  0  0  0  0  0  0  0  0  0  0  0
  -13.5839   -2.5611  -23.3512 H   0  0  0  0  0  0  0  0  0  0  0  0
  -12.1075   -0.9941  -24.6634 H   0  0  0  0  0  0  0  0  0  0  0  0
  1  2  1  0
  2  3  1  0
  3  4  1  0
  4  5  1  0
  5  6  1  0
  7  6  1  6
  7  8  1  0
  8  9  2  0
  8 10  1  0
 10 11  1  0
 11 12  2  0
 12 13  1  0
 13 14  2  0
 14 15  1  0
 15 16  2  0
 16 17  1  0
 17 18  2  0
 18 19  1  0
 19 20  2  0
 10 21  1  0
 21 22  1  0
 22 23  1  0
  7 24  1  0
 24 25  2  0
 25 26  1  0
 26 27  1  0
 26 28  2  0
 28 29  1  0
 29 30  2  0
 30 31  1  0
 31 32  2  0
 31  5  1  0
 22  7  1  0
 30 24  1  0
 20 11  1  0
 20 15  1  0
  1 33  1  0
  1 34  1  0
  1 35  1  0
  2 36  1  0
  2 37  1  0
  3 38  1  0
  3 39  1  0
  4 40  1  0
  4 41  1  0
  6 42  1  0
  6 43  1  0
 12 44  1  0
 14 45  1  0
 16 46  1  0
 17 47  1  0
 18 48  1  0
 19 49  1  0
 21 50  1  0
 21 51  1  0
 22 52  1  1
 23 53  1  0
 23 54  1  0
 23 55  1  0
 25 56  1  0
 28 57  1  0
 29 58  1  0
M  CHG  1   2   1
M  END
>  <RMSD>  (72) 
0.058825208780646336

$$$$

     RDKit          3D

 57 61  0  0  0  0  0  0  0  0999 V2000
   -6.7631    2.6512  -23.2215 C   0  0  0  0  0  0  0  0  0  0  0  0
   -7.3109    1.4741  -23.8586 N   0  0  0  0  0  0  0  0  0  0  0  0
   -6.8331    1.0637  -25.0523 C   0  0  0  0  0  0  0  0  0  0  0  0
   -6.0157    1.6969  -25.7056 O   0  0  0  0  0  0  0  0  0  0  0  0
   -7.3279   -0.2868  -25.5806 C   0  0  0  0  0  0  0  0  0  0  0  0
   -8.1459   -1.0830  -24.6890 N   0  0  0  0  0  0  0  0  0  0  0  0
   -7.5822   -2.2926  -24.1217 C   0  0  0  0  0  0  0  0  0  0  0  0
   -8.2298   -2.6385  -22.7555 C   0  0  2  0  0  0  0  0  0  0  0  0
   -7.8766   -1.5344  -21.7260 C   0  0  0  0  0  0  0  0  0  0  0  0
   -8.4079   -0.4495  -21.5916 O   0  0  0  0  0  0  0  0  0  0  0  0
   -6.8123   -1.9806  -20.9705 N   0  0  0  0  0  0  0  0  0  0  0  0
   -6.1769   -1.1537  -20.0042 C   0  0  0  0  0  0  0  0  0  0  0  0
   -6.5468   -1.2431  -18.6871 C   0  0  0  0  0  0  0  0  0  0  0  0
   -6.0145   -0.5015  -17.6824 N   0  0  0  0  0  0  0  0  0  0  0  0
   -5.0749    0.3596  -18.0000 C   0  0  0  0  0  0  0  0  0  0  0  0
   -4.5716    0.5407  -19.3218 C   0  0  0  0  0  0  0  0  0  0  0  0
   -3.5536    1.4876  -19.6294 C   0  0  0  0  0  0  0  0  0  0  0  0
   -3.0981    1.6212  -20.9140 C   0  0  0  0  0  0  0  0  0  0  0  0
   -3.6265    0.8172  -21.9516 C   0  0  0  0  0  0  0  0  0  0  0  0
   -4.6203   -0.0913  -21.6830 C   0  0  0  0  0  0  0  0  0  0  0  0
   -5.1273   -0.2477  -20.3618 C   0  0  0  0  0  0  0  0  0  0  0  0
   -6.3444   -3.3047  -21.3497 C   0  0  0  0  0  0  0  0  0  0  0  0
   -7.5580   -3.8720  -22.1017 C   0  0  2  0  0  0  0  0  0  0  0  0
   -7.2465   -5.0442  -23.0262 C   0  0  0  0  0  0  0  0  0  0  0  0
   -6.7884   -6.1831  -22.3263 O   0  0  0  0  0  0  0  0  0  0  0  0
   -9.7243   -2.7174  -22.9785 C   0  0  0  0  0  0  0  0  0  0  0  0
  -10.5506   -3.5908  -22.2605 C   0  0  0  0  0  0  0  0  0  0  0  0
  -11.9254   -3.5103  -22.3984 C   0  0  0  0  0  0  0  0  0  0  0  0
  -12.9256   -4.5723  -21.4472 Cl  0  0  0  0  0  0  0  0  0  0  0  0
  -12.5242   -2.5844  -23.2554 C   0  0  0  0  0  0  0  0  0  0  0  0
  -11.7104   -1.7320  -23.9807 C   0  0  0  0  0  0  0  0  0  0  0  0
  -10.3216   -1.7944  -23.8532 C   0  0  0  0  0  0  0  0  0  0  0  0
   -9.4910   -0.8382  -24.6617 C   0  0  0  0  0  0  0  0  0  0  0  0
   -9.9728    0.1222  -25.2477 O   0  0  0  0  0  0  0  0  0  0  0  0
   -7.2928    2.8053  -22.2794 H   0  0  0  0  0  0  0  0  0  0  0  0
   -5.6996    2.5091  -22.9996 H   0  0  0  0  0  0  0  0  0  0  0  0
   -6.8665    3.5421  -23.8494 H   0  0  0  0  0  0  0  0  0  0  0  0
   -8.1035    1.0194  -23.4273 H   0  0  0  0  0  0  0  0  0  0  0  0
   -7.8653   -0.1100  -26.5187 H   0  0  0  0  0  0  0  0  0  0  0  0
   -6.4315   -0.8611  -25.8352 H   0  0  0  0  0  0  0  0  0  0  0  0
   -6.5076   -2.1332  -23.9844 H   0  0  0  0  0  0  0  0  0  0  0  0
   -7.7173   -3.1325  -24.8196 H   0  0  0  0  0  0  0  0  0  0  0  0
   -7.3294   -1.9378  -18.3903 H   0  0  0  0  0  0  0  0  0  0  0  0
   -4.6573    0.9647  -17.1925 H   0  0  0  0  0  0  0  0  0  0  0  0
   -3.1550    2.1093  -18.8286 H   0  0  0  0  0  0  0  0  0  0  0  0
   -2.3300    2.3518  -21.1558 H   0  0  0  0  0  0  0  0  0  0  0  0
   -3.2749    0.9422  -22.9743 H   0  0  0  0  0  0  0  0  0  0  0  0
   -5.0342   -0.7009  -22.4827 H   0  0  0  0  0  0  0  0  0  0  0  0
   -6.0829   -3.8894  -20.4655 H   0  0  0  0  0  0  0  0  0  0  0  0
   -5.4544   -3.2790  -22.0023 H   0  0  0  0  0  0  0  0  0  0  0  0
   -8.2322   -4.2465  -21.3289 H   0  0  0  0  0  0  0  0  0  0  0  0
   -6.4436   -4.7646  -23.7106 H   0  0  0  0  0  0  0  0  0  0  0  0
   -8.1164   -5.2855  -23.6560 H   0  0  0  0  0  0  0  0  0  0  0  0
   -7.5629   -6.5911  -21.9171 H   0  0  0  0  0  0  0  0  0  0  0  0
  -10.1329   -4.3363  -21.5917 H   0  0  0  0  0  0  0  0  0  0  0  0
  -13.6078   -2.5356  -23.3301 H   0  0  0  0  0  0  0  0  0  0  0  0
  -12.1403   -1.0004  -24.6574 H   0  0  0  0  0  0  0  0  0  0  0  0
  1  2  1  0
  2  3  1  0
  3  4  2  0
  3  5  1  0
  5  6  1  0
  6  7  1  0
  8  7  1  6
  8  9  1  0
  9 10  2  0
  9 11  1  0
 11 12  1  0
 12 13  2  0
 13 14  1  0
 14 15  2  0
 15 16  1  0
 16 17  2  0
 17 18  1  0
 18 19  2  0
 19 20  1  0
 20 21  2  0
 11 22  1  0
 22 23  1  0
 23 24  1  0
 24 25  1  0
  8 26  1  0
 26 27  2  0
 27 28  1  0
 28 29  1  0
 28 30  2  0
 30 31  1  0
 31 32  2  0
 32 33  1  0
 33 34  2  0
 33  6  1  0
 23  8  1  0
 32 26  1  0
 21 12  1  0
 21 16  1  0
  1 35  1  0
  1 36  1  0
  1 37  1  0
  2 38  1  0
  5 39  1  0
  5 40  1  0
  7 41  1  0
  7 42  1  0
 13 43  1  0
 15 44  1  0
 17 45  1  0
 18 46  1  0
 19 47  1  0
 20 48  1  0
 22 49  1  0
 22 50  1  0
 23 51  1  1
 24 52  1  0
 24 53  1  0
 25 54  1  0
 27 55  1  0
 30 56  1  0
 31 57  1  0
M  END
>  <RMSD>  (73) 
0.056813323235607456

$$$$

     RDKit          3D

 47 50  0  0  0  0  0  0  0  0999 V2000
   -7.8621   -3.8354  -19.8165 O   0  0  0  0  0  0  0  0  0  0  0  0
   -6.7730   -3.7471  -20.3697 C   0  0  0  0  0  0  0  0  0  0  0  0
   -6.3245   -2.4111  -20.9536 C   0  0  0  0  0  0  0  0  0  0  0  0
   -5.9368   -1.3628  -19.9393 C   0  0  0  0  0  0  0  0  0  0  0  0
   -6.4660   -1.3122  -18.6755 C   0  0  0  0  0  0  0  0  0  0  0  0
   -6.0864   -0.4298  -17.7155 N   0  0  0  0  0  0  0  0  0  0  0  0
   -5.1451    0.4268  -18.0271 C   0  0  0  0  0  0  0  0  0  0  0  0
   -4.5434    0.5234  -19.3121 C   0  0  0  0  0  0  0  0  0  0  0  0
   -3.5013    1.4398  -19.6111 C   0  0  0  0  0  0  0  0  0  0  0  0
   -3.0547    1.5662  -20.9015 C   0  0  0  0  0  0  0  0  0  0  0  0
   -3.6723    0.8380  -21.9443 C   0  0  0  0  0  0  0  0  0  0  0  0
   -4.6577   -0.0735  -21.6710 C   0  0  0  0  0  0  0  0  0  0  0  0
   -5.0424   -0.3217  -20.3280 C   0  0  0  0  0  0  0  0  0  0  0  0
   -5.9544   -4.8441  -20.5139 N   0  0  0  0  0  0  0  0  0  0  0  0
   -4.5644   -4.7664  -20.9632 C   0  0  0  0  0  0  0  0  0  0  0  0
   -3.6967   -5.8146  -20.2781 C   0  0  0  0  0  0  0  0  0  0  0  0
   -4.2908   -7.2069  -20.4358 C   0  0  0  0  0  0  0  0  0  0  0  0
   -5.7046   -7.2256  -19.8626 C   0  0  0  0  0  0  0  0  0  0  0  0
   -6.6255   -6.1518  -20.4479 C   0  0  2  0  0  0  0  0  0  0  0  0
   -7.2987   -6.5455  -21.7643 C   0  0  0  0  0  0  0  0  0  0  0  0
   -6.6044   -6.6319  -22.9704 C   0  0  0  0  0  0  0  0  0  0  0  0
   -7.2592   -7.0110  -24.1395 C   0  0  0  0  0  0  0  0  0  0  0  0
   -8.6217   -7.2899  -24.1187 C   0  0  0  0  0  0  0  0  0  0  0  0
   -9.3195   -7.2372  -22.9184 C   0  0  0  0  0  0  0  0  0  0  0  0
   -8.6603   -6.8623  -21.7529 C   0  0  0  0  0  0  0  0  0  0  0  0
   -7.1888   -2.0485  -21.5229 H   0  0  0  0  0  0  0  0  0  0  0  0
   -5.5180   -2.5713  -21.6743 H   0  0  0  0  0  0  0  0  0  0  0  0
   -7.2757   -1.9862  -18.4072 H   0  0  0  0  0  0  0  0  0  0  0  0
   -4.8438    1.1444  -17.2640 H   0  0  0  0  0  0  0  0  0  0  0  0
   -3.0846    2.0543  -18.8158 H   0  0  0  0  0  0  0  0  0  0  0  0
   -2.2747    2.2794  -21.1422 H   0  0  0  0  0  0  0  0  0  0  0  0
   -3.3732    1.0038  -22.9756 H   0  0  0  0  0  0  0  0  0  0  0  0
   -5.1585   -0.6083  -22.4771 H   0  0  0  0  0  0  0  0  0  0  0  0
   -4.1828   -3.7755  -20.7097 H   0  0  0  0  0  0  0  0  0  0  0  0
   -4.4938   -4.8836  -22.0563 H   0  0  0  0  0  0  0  0  0  0  0  0
   -3.6220   -5.5669  -19.2124 H   0  0  0  0  0  0  0  0  0  0  0  0
   -2.6852   -5.7555  -20.6972 H   0  0  0  0  0  0  0  0  0  0  0  0
   -4.2977   -7.5026  -21.4931 H   0  0  0  0  0  0  0  0  0  0  0  0
   -3.6772   -7.9347  -19.8965 H   0  0  0  0  0  0  0  0  0  0  0  0
   -6.1808   -8.2037  -19.9950 H   0  0  0  0  0  0  0  0  0  0  0  0
   -5.6416   -7.0383  -18.7834 H   0  0  0  0  0  0  0  0  0  0  0  0
   -7.4430   -6.0131  -19.7377 H   0  0  0  0  0  0  0  0  0  0  0  0
   -5.5377   -6.4227  -23.0148 H   0  0  0  0  0  0  0  0  0  0  0  0
   -6.6918   -7.1129  -25.0606 H   0  0  0  0  0  0  0  0  0  0  0  0
   -9.1426   -7.5366  -25.0367 H   0  0  0  0  0  0  0  0  0  0  0  0
  -10.3722   -7.5063  -22.8866 H   0  0  0  0  0  0  0  0  0  0  0  0
   -9.2138   -6.7983  -20.8168 H   0  0  0  0  0  0  0  0  0  0  0  0
  1  2  2  0
  2  3  1  0
  3  4  1  0
  4  5  2  0
  5  6  1  0
  6  7  2  0
  7  8  1  0
  8  9  2  0
  9 10  1  0
 10 11  2  0
 11 12  1  0
 12 13  2  0
  2 14  1  0
 14 15  1  0
 15 16  1  0
 16 17  1  0
 17 18  1  0
 18 19  1  0
 19 20  1  0
 20 21  2  0
 21 22  1  0
 22 23  2  0
 23 24  1  0
 24 25  2  0
 13  4  1  0
 19 14  1  0
 25 20  1  0
 13  8  1  0
  3 26  1  0
  3 27  1  0
  5 28  1  0
  7 29  1  0
  9 30  1  0
 10 31  1  0
 11 32  1  0
 12 33  1  0
 15 34  1  0
 15 35  1  0
 16 36  1  0
 16 37  1  0
 17 38  1  0
 17 39  1  0
 18 40  1  0
 18 41  1  0
 19 42  1  1
 21 43  1  0
 22 44  1  0
 23 45  1  0
 24 46  1  0
 25 47  1  0
M  END
>  <RMSD>  (74) 
0.12365196708130163

$$$$

     RDKit          3D

 40 42  0  0  0  0  0  0  0  0999 V2000
   -9.0088   -2.5796  -20.0764 O   0  0  0  0  0  0  0  0  0  0  0  0
   -7.9851   -2.7094  -20.7338 C   0  0  0  0  0  0  0  0  0  0  0  0
   -7.1782   -1.4918  -21.1187 C   0  0  0  0  0  0  0  0  0  0  0  0
   -6.2720   -1.0082  -20.0229 C   0  0  0  0  0  0  0  0  0  0  0  0
   -6.5644   -1.2107  -18.7015 C   0  0  0  0  0  0  0  0  0  0  0  0
   -5.9226   -0.6055  -17.6660 N   0  0  0  0  0  0  0  0  0  0  0  0
   -4.9776    0.2478  -17.9788 C   0  0  0  0  0  0  0  0  0  0  0  0
   -4.5579    0.5458  -19.3080 C   0  0  0  0  0  0  0  0  0  0  0  0
   -3.6300    1.5700  -19.6491 C   0  0  0  0  0  0  0  0  0  0  0  0
   -3.1633    1.6613  -20.9332 C   0  0  0  0  0  0  0  0  0  0  0  0
   -3.6012    0.7644  -21.9283 C   0  0  0  0  0  0  0  0  0  0  0  0
   -4.5740   -0.1540  -21.6463 C   0  0  0  0  0  0  0  0  0  0  0  0
   -5.1339   -0.2191  -20.3453 C   0  0  0  0  0  0  0  0  0  0  0  0
   -7.5345   -3.9499  -21.1310 N   0  0  0  0  0  0  0  0  0  0  0  0
   -8.5815   -4.9628  -21.2420 C   0  0  0  0  0  0  0  0  0  0  0  0
   -9.3746   -4.7194  -22.5378 C   0  0  0  0  0  0  0  0  0  0  0  0
   -8.4484   -4.6362  -23.7739 C   0  0  0  0  0  0  0  0  0  0  0  0
   -9.1952   -4.1576  -25.0054 C   0  0  0  0  0  0  0  0  0  0  0  0
   -8.3766   -4.0213  -26.0689 F   0  0  0  0  0  0  0  0  0  0  0  0
   -9.7525   -2.9429  -24.8034 F   0  0  0  0  0  0  0  0  0  0  0  0
  -10.1900   -4.9884  -25.3677 F   0  0  0  0  0  0  0  0  0  0  0  0
   -7.2538   -3.6937  -23.5469 C   0  0  0  0  0  0  0  0  0  0  0  0
   -6.5849   -4.0668  -22.2303 C   0  0  0  0  0  0  0  0  0  0  0  0
   -6.6148   -1.6534  -22.0357 H   0  0  0  0  0  0  0  0  0  0  0  0
   -7.9399   -0.7346  -21.3387 H   0  0  0  0  0  0  0  0  0  0  0  0
   -7.4013   -1.8464  -18.4392 H   0  0  0  0  0  0  0  0  0  0  0  0
   -4.4847    0.7470  -17.1469 H   0  0  0  0  0  0  0  0  0  0  0  0
   -3.3095    2.2839  -18.8935 H   0  0  0  0  0  0  0  0  0  0  0  0
   -2.4480    2.4345  -21.1964 H   0  0  0  0  0  0  0  0  0  0  0  0
   -3.1782    0.8107  -22.9291 H   0  0  0  0  0  0  0  0  0  0  0  0
   -4.8985   -0.8398  -22.4229 H   0  0  0  0  0  0  0  0  0  0  0  0
   -9.2132   -4.8551  -20.3609 H   0  0  0  0  0  0  0  0  0  0  0  0
   -8.1087   -5.9558  -21.2219 H   0  0  0  0  0  0  0  0  0  0  0  0
  -10.1361   -5.4953  -22.6712 H   0  0  0  0  0  0  0  0  0  0  0  0
   -9.9064   -3.7653  -22.4320 H   0  0  0  0  0  0  0  0  0  0  0  0
   -8.0775   -5.6419  -24.0149 H   0  0  0  0  0  0  0  0  0  0  0  0
   -6.5343   -3.7565  -24.3705 H   0  0  0  0  0  0  0  0  0  0  0  0
   -7.6232   -2.6613  -23.5273 H   0  0  0  0  0  0  0  0  0  0  0  0
   -5.6873   -3.4833  -22.0197 H   0  0  0  0  0  0  0  0  0  0  0  0
   -6.2998   -5.1241  -22.2849 H   0  0  0  0  0  0  0  0  0  0  0  0
  1  2  2  0
  2  3  1  0
  3  4  1  0
  4  5  2  0
  5  6  1  0
  6  7  2  0
  7  8  1  0
  8  9  2  0
  9 10  1  0
 10 11  2  0
 11 12  1  0
 12 13  2  0
  2 14  1  0
 14 15  1  0
 15 16  1  0
 16 17  1  0
 17 18  1  0
 18 19  1  0
 18 20  1  0
 18 21  1  0
 17 22  1  0
 22 23  1  0
 13  4  1  0
 23 14  1  0
 13  8  1  0
  3 24  1  0
  3 25  1  0
  5 26  1  0
  7 27  1  0
  9 28  1  0
 10 29  1  0
 11 30  1  0
 12 31  1  0
 15 32  1  0
 15 33  1  0
 16 34  1  0
 16 35  1  0
 17 36  1  0
 22 37  1  0
 22 38  1  0
 23 39  1  0
 23 40  1  0
M  END
>  <RMSD>  (75) 
0.16414861333414302

$$$$

     RDKit          3D

 55 60  0  0  0  0  0  0  0  0999 V2000
   -7.2327   -5.0341  -23.0349 C   0  0  0  0  0  0  0  0  0  0  0  0
   -7.5615   -3.8783  -22.0997 C   0  0  1  0  0  0  0  0  0  0  0  0
   -6.3528   -3.2993  -21.3548 C   0  0  0  0  0  0  0  0  0  0  0  0
   -6.8081   -1.9740  -20.9768 N   0  0  0  0  0  0  0  0  0  0  0  0
   -6.1736   -1.1560  -20.0049 C   0  0  0  0  0  0  0  0  0  0  0  0
   -6.5464   -1.2444  -18.6864 C   0  0  0  0  0  0  0  0  0  0  0  0
   -6.0164   -0.5008  -17.6832 N   0  0  0  0  0  0  0  0  0  0  0  0
   -5.0743    0.3607  -17.9981 C   0  0  0  0  0  0  0  0  0  0  0  0
   -4.5715    0.5390  -19.3210 C   0  0  0  0  0  0  0  0  0  0  0  0
   -3.5559    1.4886  -19.6307 C   0  0  0  0  0  0  0  0  0  0  0  0
   -3.1051    1.6255  -20.9166 C   0  0  0  0  0  0  0  0  0  0  0  0
   -3.6346    0.8204  -21.9482 C   0  0  0  0  0  0  0  0  0  0  0  0
   -4.6209   -0.0981  -21.6792 C   0  0  0  0  0  0  0  0  0  0  0  0
   -5.1211   -0.2521  -20.3567 C   0  0  0  0  0  0  0  0  0  0  0  0
   -7.8818   -1.5283  -21.7255 C   0  0  0  0  0  0  0  0  0  0  0  0
   -8.4212   -0.4580  -21.5801 O   0  0  0  0  0  0  0  0  0  0  0  0
   -8.2322   -2.6393  -22.7535 C   0  0  1  0  0  0  0  0  0  0  0  0
   -7.5821   -2.2907  -24.1209 C   0  0  0  0  0  0  0  0  0  0  0  0
   -8.1429   -1.0804  -24.6923 N   0  0  0  0  0  0  0  0  0  0  0  0
   -7.3234   -0.2602  -25.5623 C   0  0  0  0  0  0  0  0  0  0  0  0
   -7.0300    1.0852  -24.9750 C   0  0  0  0  0  0  0  0  0  0  0  0
   -6.9969    2.2238  -25.7118 N   0  0  0  0  0  0  0  0  0  0  0  0
   -6.6579    3.1439  -24.8309 C   0  0  0  0  0  0  0  0  0  0  0  0
   -6.4827    2.5621  -23.6349 N   0  0  0  0  0  0  0  0  0  0  0  0
   -6.7073    1.2395  -23.6971 N   0  0  0  0  0  0  0  0  0  0  0  0
   -9.4850   -0.8160  -24.6477 C   0  0  0  0  0  0  0  0  0  0  0  0
   -9.9804    0.1348  -25.2381 O   0  0  0  0  0  0  0  0  0  0  0  0
  -10.3229   -1.7798  -23.8503 C   0  0  0  0  0  0  0  0  0  0  0  0
  -11.7148   -1.7208  -23.9790 C   0  0  0  0  0  0  0  0  0  0  0  0
  -12.5271   -2.5745  -23.2584 C   0  0  0  0  0  0  0  0  0  0  0  0
  -11.9204   -3.4981  -22.4166 C   0  0  0  0  0  0  0  0  0  0  0  0
  -12.6926   -4.3316  -21.7007 F   0  0  0  0  0  0  0  0  0  0  0  0
  -10.5512   -3.5866  -22.2676 C   0  0  0  0  0  0  0  0  0  0  0  0
   -9.7278   -2.7101  -22.9811 C   0  0  0  0  0  0  0  0  0  0  0  0
   -6.8775   -5.9042  -22.4762 H   0  0  0  0  0  0  0  0  0  0  0  0
   -8.1075   -5.3425  -23.6173 H   0  0  0  0  0  0  0  0  0  0  0  0
   -6.4500   -4.7566  -23.7469 H   0  0  0  0  0  0  0  0  0  0  0  0
   -8.2282   -4.2553  -21.3182 H   0  0  0  0  0  0  0  0  0  0  0  0
   -6.0985   -3.8860  -20.4698 H   0  0  0  0  0  0  0  0  0  0  0  0
   -5.4690   -3.2749  -22.0148 H   0  0  0  0  0  0  0  0  0  0  0  0
   -7.3327   -1.9377  -18.3950 H   0  0  0  0  0  0  0  0  0  0  0  0
   -4.6531    0.9668  -17.1939 H   0  0  0  0  0  0  0  0  0  0  0  0
   -3.1499    2.1102  -18.8367 H   0  0  0  0  0  0  0  0  0  0  0  0
   -2.3296    2.3503  -21.1528 H   0  0  0  0  0  0  0  0  0  0  0  0
   -3.2732    0.9376  -22.9667 H   0  0  0  0  0  0  0  0  0  0  0  0
   -5.0373   -0.6984  -22.4834 H   0  0  0  0  0  0  0  0  0  0  0  0
   -7.7245   -3.1230  -24.8249 H   0  0  0  0  0  0  0  0  0  0  0  0
   -6.5056   -2.1322  -23.9831 H   0  0  0  0  0  0  0  0  0  0  0  0
   -7.8096   -0.1472  -26.5336 H   0  0  0  0  0  0  0  0  0  0  0  0
   -6.3821   -0.7909  -25.7436 H   0  0  0  0  0  0  0  0  0  0  0  0
   -6.5317    4.2041  -25.0182 H   0  0  0  0  0  0  0  0  0  0  0  0
   -6.2113    2.9952  -22.7703 H   0  0  0  0  0  0  0  0  0  0  0  0
  -12.1582   -0.9968  -24.6528 H   0  0  0  0  0  0  0  0  0  0  0  0
  -13.6111   -2.5352  -23.3284 H   0  0  0  0  0  0  0  0  0  0  0  0
  -10.1537   -4.3389  -21.5959 H   0  0  0  0  0  0  0  0  0  0  0  0
  1  2  1  0
  2  3  1  0
  3  4  1  0
  4  5  1  0
  5  6  2  0
  6  7  1  0
  7  8  2  0
  8  9  1  0
  9 10  2  0
 10 11  1  0
 11 12  2  0
 12 13  1  0
 13 14  2  0
  4 15  1  0
 15 16  2  0
 15 17  1  0
 17 18  1  6
 18 19  1  0
 19 20  1  0
 20 21  1  0
 21 22  1  0
 22 23  2  0
 23 24  1  0
 24 25  1  0
 19 26  1  0
 26 27  2  0
 26 28  1  0
 28 29  2  0
 29 30  1  0
 30 31  2  0
 31 32  1  0
 31 33  1  0
 33 34  2  0
 17  2  1  0
 25 21  2  0
 34 28  1  0
 14  5  1  0
 34 17  1  0
 14  9  1  0
  1 35  1  0
  1 36  1  0
  1 37  1  0
  2 38  1  1
  3 39  1  0
  3 40  1  0
  6 41  1  0
  8 42  1  0
 10 43  1  0
 11 44  1  0
 12 45  1  0
 13 46  1  0
 18 47  1  0
 18 48  1  0
 20 49  1  0
 20 50  1  0
 23 51  1  0
 24 52  1  0
 29 53  1  0
 30 54  1  0
 33 55  1  0
M  END
>  <RMSD>  (76) 
0.05508360313483905

$$$$

     RDKit          3D

 38 41  0  0  0  0  0  0  0  0999 V2000
   -9.0875   -5.8228  -24.9610 C   0  0  0  0  0  0  0  0  0  0  0  0
   -9.0521   -4.6483  -23.9899 C   0  0  2  0  0  0  0  0  0  0  0  0
   -9.3827   -3.3266  -24.6773 C   0  0  0  0  0  0  0  0  0  0  0  0
   -9.4432   -2.1681  -23.6715 C   0  0  0  0  0  0  0  0  0  0  0  0
   -8.3226   -2.2012  -22.7163 C   0  0  0  0  0  0  0  0  0  0  0  0
   -7.9829   -1.2665  -21.6756 C   0  0  0  0  0  0  0  0  0  0  0  0
   -8.4803   -0.2084  -21.3576 O   0  0  0  0  0  0  0  0  0  0  0  0
   -6.9169   -1.8806  -20.9728 N   0  0  0  0  0  0  0  0  0  0  0  0
   -6.1620   -1.1898  -19.9784 C   0  0  0  0  0  0  0  0  0  0  0  0
   -6.4810   -1.2991  -18.6486 C   0  0  0  0  0  0  0  0  0  0  0  0
   -5.9379   -0.5436  -17.6552 N   0  0  0  0  0  0  0  0  0  0  0  0
   -5.0382    0.3535  -17.9869 C   0  0  0  0  0  0  0  0  0  0  0  0
   -4.5693    0.5395  -19.3190 C   0  0  0  0  0  0  0  0  0  0  0  0
   -3.5877    1.5178  -19.6460 C   0  0  0  0  0  0  0  0  0  0  0  0
   -3.1523    1.6493  -20.9373 C   0  0  0  0  0  0  0  0  0  0  0  0
   -3.6757    0.8207  -21.9537 C   0  0  0  0  0  0  0  0  0  0  0  0
   -4.6351   -0.1191  -21.6675 C   0  0  0  0  0  0  0  0  0  0  0  0
   -5.1172   -0.2748  -20.3398 C   0  0  0  0  0  0  0  0  0  0  0  0
   -6.6779   -3.1715  -21.4585 C   0  0  0  0  0  0  0  0  0  0  0  0
   -5.8613   -3.9639  -21.0547 O   0  0  0  0  0  0  0  0  0  0  0  0
   -7.5847   -3.3230  -22.5060 N   0  0  0  0  0  0  0  0  0  0  0  0
   -7.6921   -4.5448  -23.2983 C   0  0  0  0  0  0  0  0  0  0  0  0
  -10.0736   -5.9211  -25.4228 H   0  0  0  0  0  0  0  0  0  0  0  0
   -8.8600   -6.7688  -24.4615 H   0  0  0  0  0  0  0  0  0  0  0  0
   -8.3602   -5.6864  -25.7669 H   0  0  0  0  0  0  0  0  0  0  0  0
   -9.8049   -4.8300  -23.2147 H   0  0  0  0  0  0  0  0  0  0  0  0
  -10.3340   -3.4225  -25.2194 H   0  0  0  0  0  0  0  0  0  0  0  0
   -8.6254   -3.1154  -25.4404 H   0  0  0  0  0  0  0  0  0  0  0  0
  -10.3807   -2.2434  -23.1111 H   0  0  0  0  0  0  0  0  0  0  0  0
   -9.5258   -1.2179  -24.2072 H   0  0  0  0  0  0  0  0  0  0  0  0
   -7.2394   -2.0071  -18.3255 H   0  0  0  0  0  0  0  0  0  0  0  0
   -4.6239    0.9811  -17.1923 H   0  0  0  0  0  0  0  0  0  0  0  0
   -3.1881    2.1613  -18.8646 H   0  0  0  0  0  0  0  0  0  0  0  0
   -2.3987    2.3916  -21.1927 H   0  0  0  0  0  0  0  0  0  0  0  0
   -3.3181    0.9309  -22.9741 H   0  0  0  0  0  0  0  0  0  0  0  0
   -5.0388   -0.7460  -22.4557 H   0  0  0  0  0  0  0  0  0  0  0  0
   -6.8830   -4.5740  -24.0347 H   0  0  0  0  0  0  0  0  0  0  0  0
   -7.5242   -5.3984  -22.6432 H   0  0  0  0  0  0  0  0  0  0  0  0
  1  2  1  0
  2  3  1  0
  3  4  1  0
  4  5  1  0
  5  6  2  0
  6  7  1  0
  6  8  1  0
  8  9  1  0
  9 10  2  0
 10 11  1  0
 11 12  2  0
 12 13  1  0
 13 14  2  0
 14 15  1  0
 15 16  2  0
 16 17  1  0
 17 18  2  0
  8 19  1  0
 19 20  2  0
 19 21  1  0
 21 22  1  0
 22  2  1  0
 21  5  1  0
 18  9  1  0
 18 13  1  0
  1 23  1  0
  1 24  1  0
  1 25  1  0
  2 26  1  1
  3 27  1  0
  3 28  1  0
  4 29  1  0
  4 30  1  0
 10 31  1  0
 12 32  1  0
 14 33  1  0
 15 34  1  0
 16 35  1  0
 17 36  1  0
 22 37  1  0
 22 38  1  0
M  CHG  1   7  -1
M  END
>  <RMSD>  (77) 
0.1319131999368489

$$$$

     RDKit          3D

 60 65  0  0  0  0  0  0  0  0999 V2000
   -4.9826    4.2167  -22.8870 C   0  0  0  0  0  0  0  0  0  0  0  0
   -5.5775    3.0378  -23.6005 C   0  0  0  0  0  0  0  0  0  0  0  0
   -6.7716    2.4614  -23.1637 C   0  0  0  0  0  0  0  0  0  0  0  0
   -7.3391    1.4201  -23.7650 N   0  0  0  0  0  0  0  0  0  0  0  0
   -6.7043    0.9254  -24.8228 C   0  0  0  0  0  0  0  0  0  0  0  0
   -7.3099   -0.2561  -25.5502 C   0  0  0  0  0  0  0  0  0  0  0  0
   -8.1578   -1.0818  -24.7126 N   0  0  0  0  0  0  0  0  0  0  0  0
   -7.5854   -2.2815  -24.1255 C   0  0  0  0  0  0  0  0  0  0  0  0
   -8.2318   -2.6357  -22.7560 C   0  0  2  0  0  0  0  0  0  0  0  0
   -7.8817   -1.5271  -21.7244 C   0  0  0  0  0  0  0  0  0  0  0  0
   -8.4219   -0.4582  -21.5709 O   0  0  0  0  0  0  0  0  0  0  0  0
   -6.8078   -1.9748  -20.9767 N   0  0  0  0  0  0  0  0  0  0  0  0
   -6.1732   -1.1566  -20.0049 C   0  0  0  0  0  0  0  0  0  0  0  0
   -6.5461   -1.2450  -18.6866 C   0  0  0  0  0  0  0  0  0  0  0  0
   -6.0167   -0.5016  -17.6822 N   0  0  0  0  0  0  0  0  0  0  0  0
   -5.0746    0.3601  -17.9976 C   0  0  0  0  0  0  0  0  0  0  0  0
   -4.5713    0.5404  -19.3201 C   0  0  0  0  0  0  0  0  0  0  0  0
   -3.5560    1.4882  -19.6294 C   0  0  0  0  0  0  0  0  0  0  0  0
   -3.1000    1.6176  -20.9149 C   0  0  0  0  0  0  0  0  0  0  0  0
   -3.6305    0.8168  -21.9507 C   0  0  0  0  0  0  0  0  0  0  0  0
   -4.6258   -0.0892  -21.6828 C   0  0  0  0  0  0  0  0  0  0  0  0
   -5.1230   -0.2488  -20.3587 C   0  0  0  0  0  0  0  0  0  0  0  0
   -6.3531   -3.2995  -21.3556 C   0  0  0  0  0  0  0  0  0  0  0  0
   -7.5613   -3.8768  -22.1014 C   0  0  2  0  0  0  0  0  0  0  0  0
   -7.2322   -5.0330  -23.0358 C   0  0  0  0  0  0  0  0  0  0  0  0
   -9.7275   -2.7096  -22.9819 C   0  0  0  0  0  0  0  0  0  0  0  0
  -10.5503   -3.5865  -22.2675 C   0  0  0  0  0  0  0  0  0  0  0  0
  -11.9196   -3.4984  -22.4160 C   0  0  0  0  0  0  0  0  0  0  0  0
  -12.6919   -4.3322  -21.7002 F   0  0  0  0  0  0  0  0  0  0  0  0
  -12.5280   -2.5754  -23.2569 C   0  0  0  0  0  0  0  0  0  0  0  0
  -11.7166   -1.7214  -23.9776 C   0  0  0  0  0  0  0  0  0  0  0  0
  -10.3259   -1.7800  -23.8507 C   0  0  0  0  0  0  0  0  0  0  0  0
   -9.4993   -0.8149  -24.6576 C   0  0  0  0  0  0  0  0  0  0  0  0
  -10.0072    0.1333  -25.2429 O   0  0  0  0  0  0  0  0  0  0  0  0
   -5.5102    1.4972  -25.2652 C   0  0  0  0  0  0  0  0  0  0  0  0
   -4.9450    2.5466  -24.6711 N   0  0  0  0  0  0  0  0  0  0  0  0
   -5.5623    5.1272  -23.0609 H   0  0  0  0  0  0  0  0  0  0  0  0
   -3.9584    4.3930  -23.2194 H   0  0  0  0  0  0  0  0  0  0  0  0
   -4.9724    4.0657  -21.8024 H   0  0  0  0  0  0  0  0  0  0  0  0
   -7.2914    2.8676  -22.3016 H   0  0  0  0  0  0  0  0  0  0  0  0
   -6.5204   -0.8949  -25.9625 H   0  0  0  0  0  0  0  0  0  0  0  0
   -7.9080    0.0725  -26.4043 H   0  0  0  0  0  0  0  0  0  0  0  0
   -7.7244   -3.1173  -24.8253 H   0  0  0  0  0  0  0  0  0  0  0  0
   -6.5083   -2.1251  -23.9912 H   0  0  0  0  0  0  0  0  0  0  0  0
   -7.3324   -1.9384  -18.3949 H   0  0  0  0  0  0  0  0  0  0  0  0
   -4.6522    0.9669  -17.1941 H   0  0  0  0  0  0  0  0  0  0  0  0
   -3.1505    2.1118  -18.8371 H   0  0  0  0  0  0  0  0  0  0  0  0
   -2.3342    2.3545  -21.1515 H   0  0  0  0  0  0  0  0  0  0  0  0
   -3.2707    0.9371  -22.9690 H   0  0  0  0  0  0  0  0  0  0  0  0
   -5.0387   -0.7014  -22.4790 H   0  0  0  0  0  0  0  0  0  0  0  0
   -5.4696   -3.2748  -22.0158 H   0  0  0  0  0  0  0  0  0  0  0  0
   -6.0986   -3.8863  -20.4704 H   0  0  0  0  0  0  0  0  0  0  0  0
   -8.2270   -4.2549  -21.3190 H   0  0  0  0  0  0  0  0  0  0  0  0
   -6.8767   -5.9033  -22.4770 H   0  0  0  0  0  0  0  0  0  0  0  0
   -8.1070   -5.3418  -23.6181 H   0  0  0  0  0  0  0  0  0  0  0  0
   -6.4493   -4.7554  -23.7476 H   0  0  0  0  0  0  0  0  0  0  0  0
  -10.1536   -4.3391  -21.5958 H   0  0  0  0  0  0  0  0  0  0  0  0
  -13.6113   -2.5356  -23.3274 H   0  0  0  0  0  0  0  0  0  0  0  0
  -12.1586   -0.9964  -24.6515 H   0  0  0  0  0  0  0  0  0  0  0  0
   -5.0058    1.0975  -26.1385 H   0  0  0  0  0  0  0  0  0  0  0  0
  1  2  1  0
  2  3  2  0
  3  4  1  0
  4  5  2  0
  5  6  1  0
  6  7  1  0
  7  8  1  0
  9  8  1  6
  9 10  1  0
 10 11  2  0
 10 12  1  0
 12 13  1  0
 13 14  2  0
 14 15  1  0
 15 16  2  0
 16 17  1  0
 17 18  2  0
 18 19  1  0
 19 20  2  0
 20 21  1  0
 21 22  2  0
 12 23  1  0
 23 24  1  0
 24 25  1  0
  9 26  1  0
 26 27  2  0
 27 28  1  0
 28 29  1  0
 28 30  2  0
 30 31  1  0
 31 32  2  0
 32 33  1  0
 33 34  2  0
  5 35  1  0
 35 36  2  0
 36  2  1  0
 33  7  1  0
 24  9  1  0
 32 26  1  0
 22 13  1  0
 22 17  1  0
  1 37  1  0
  1 38  1  0
  1 39  1  0
  3 40  1  0
  6 41  1  0
  6 42  1  0
  8 43  1  0
  8 44  1  0
 14 45  1  0
 16 46  1  0
 18 47  1  0
 19 48  1  0
 20 49  1  0
 21 50  1  0
 23 51  1  0
 23 52  1  0
 24 53  1  1
 25 54  1  0
 25 55  1  0
 25 56  1  0
 27 57  1  0
 30 58  1  0
 31 59  1  0
 35 60  1  0
M  END
>  <RMSD>  (78) 
0.0551102986316378

$$$$

     RDKit          3D

 43 45  0  0  0  0  0  0  0  0999 V2000
   -8.5780    0.4112  -26.4193 C   0  0  0  0  0  0  0  0  0  0  0  0
   -8.3610   -0.4014  -25.1431 C   0  0  1  0  0  0  0  0  0  0  0  0
   -9.5751   -1.2902  -24.8571 C   0  0  0  0  0  0  0  0  0  0  0  0
   -9.3924   -2.1759  -23.6041 C   0  0  0  0  0  0  0  0  0  0  0  0
   -8.0131   -2.3041  -23.1443 N   0  0  0  0  0  0  0  0  0  0  0  0
   -7.6197   -1.3881  -22.1252 C   0  0  0  0  0  0  0  0  0  0  0  0
   -7.9545   -0.2279  -22.0907 O   0  0  0  0  0  0  0  0  0  0  0  0
   -6.8191   -2.0674  -21.0161 C   0  0  0  0  0  0  0  0  0  0  0  0
   -6.1608   -1.1655  -20.0081 C   0  0  0  0  0  0  0  0  0  0  0  0
   -6.5012   -1.2640  -18.6823 C   0  0  0  0  0  0  0  0  0  0  0  0
   -6.0039   -0.4994  -17.6790 N   0  0  0  0  0  0  0  0  0  0  0  0
   -5.0863    0.3797  -18.0071 C   0  0  0  0  0  0  0  0  0  0  0  0
   -4.6026    0.5639  -19.3313 C   0  0  0  0  0  0  0  0  0  0  0  0
   -3.5798    1.4939  -19.6348 C   0  0  0  0  0  0  0  0  0  0  0  0
   -3.0980    1.6058  -20.9118 C   0  0  0  0  0  0  0  0  0  0  0  0
   -3.6265    0.7996  -21.9460 C   0  0  0  0  0  0  0  0  0  0  0  0
   -4.6324   -0.0905  -21.6807 C   0  0  0  0  0  0  0  0  0  0  0  0
   -5.1519   -0.2297  -20.3647 C   0  0  0  0  0  0  0  0  0  0  0  0
   -7.0568   -2.4678  -24.2509 C   0  0  1  0  0  0  0  0  0  0  0  0
   -7.3200   -3.7823  -24.9884 C   0  0  0  0  0  0  0  0  0  0  0  0
   -7.0747   -1.2473  -25.2128 C   0  0  0  0  0  0  0  0  0  0  0  0
   -9.4668    1.0466  -26.3469 H   0  0  0  0  0  0  0  0  0  0  0  0
   -7.7317    1.0613  -26.6594 H   0  0  0  0  0  0  0  0  0  0  0  0
   -8.7287   -0.2476  -27.2812 H   0  0  0  0  0  0  0  0  0  0  0  0
   -8.2561    0.2742  -24.2895 H   0  0  0  0  0  0  0  0  0  0  0  0
   -9.7781   -1.9159  -25.7420 H   0  0  0  0  0  0  0  0  0  0  0  0
  -10.4615   -0.6491  -24.7395 H   0  0  0  0  0  0  0  0  0  0  0  0
   -9.9619   -1.7977  -22.7465 H   0  0  0  0  0  0  0  0  0  0  0  0
   -9.7681   -3.1906  -23.8084 H   0  0  0  0  0  0  0  0  0  0  0  0
   -7.5637   -2.6856  -20.4907 H   0  0  0  0  0  0  0  0  0  0  0  0
   -6.1101   -2.7610  -21.4958 H   0  0  0  0  0  0  0  0  0  0  0  0
   -7.2139   -2.0228  -18.3580 H   0  0  0  0  0  0  0  0  0  0  0  0
   -4.6786    0.9942  -17.2037 H   0  0  0  0  0  0  0  0  0  0  0  0
   -3.1949    2.1115  -18.8277 H   0  0  0  0  0  0  0  0  0  0  0  0
   -2.3055    2.3116  -21.1368 H   0  0  0  0  0  0  0  0  0  0  0  0
   -3.2354    0.8954  -22.9559 H   0  0  0  0  0  0  0  0  0  0  0  0
   -5.0449   -0.7021  -22.4795 H   0  0  0  0  0  0  0  0  0  0  0  0
   -6.0636   -2.5308  -23.7834 H   0  0  0  0  0  0  0  0  0  0  0  0
   -8.2360   -3.7403  -25.5940 H   0  0  0  0  0  0  0  0  0  0  0  0
   -7.4241   -4.5952  -24.2617 H   0  0  0  0  0  0  0  0  0  0  0  0
   -6.4830   -4.0113  -25.6607 H   0  0  0  0  0  0  0  0  0  0  0  0
   -6.2193   -0.5912  -25.0014 H   0  0  0  0  0  0  0  0  0  0  0  0
   -6.9342   -1.6206  -26.2358 H   0  0  0  0  0  0  0  0  0  0  0  0
  1  2  1  0
  2  3  1  0
  3  4  1  0
  4  5  1  0
  5  6  1  0
  6  7  2  0
  6  8  1  0
  8  9  1  0
  9 10  2  0
 10 11  1  0
 11 12  2  0
 12 13  1  0
 13 14  2  0
 14 15  1  0
 15 16  2  0
 16 17  1  0
 17 18  2  0
  5 19  1  0
 19 20  1  0
 19 21  1  0
 21  2  1  0
 18  9  1  0
 18 13  1  0
  1 22  1  0
  1 23  1  0
  1 24  1  0
  2 25  1  1
  3 26  1  0
  3 27  1  0
  4 28  1  0
  4 29  1  0
  8 30  1  0
  8 31  1  0
 10 32  1  0
 12 33  1  0
 14 34  1  0
 15 35  1  0
 16 36  1  0
 17 37  1  0
 19 38  1  1
 20 39  1  0
 20 40  1  0
 20 41  1  0
 21 42  1  0
 21 43  1  0
M  END
>  <RMSD>  (79) 
0.030950458135821434

$$$$

     RDKit          3D

 41 43  0  0  0  0  0  0  0  0999 V2000
  -12.6359   -3.2677  -23.1080 C   0  0  0  0  0  0  0  0  0  0  0  0
  -11.1415   -3.1427  -22.8132 C   0  0  1  0  0  0  0  0  0  0  0  0
  -10.6257   -4.3789  -22.1004 C   0  0  0  0  0  0  0  0  0  0  0  0
   -9.3655   -4.7950  -22.0038 C   0  0  0  0  0  0  0  0  0  0  0  0
   -8.1840   -4.1245  -22.6774 C   0  0  0  0  0  0  0  0  0  0  0  0
   -8.2665   -2.6685  -22.7408 N   0  0  0  0  0  0  0  0  0  0  0  0
   -8.0054   -1.8810  -21.6238 C   0  0  0  0  0  0  0  0  0  0  0  0
   -8.7372   -0.9874  -21.2461 O   0  0  0  0  0  0  0  0  0  0  0  0
   -6.6748   -2.2311  -20.9473 C   0  0  0  0  0  0  0  0  0  0  0  0
   -6.1192   -1.2137  -19.9897 C   0  0  0  0  0  0  0  0  0  0  0  0
   -6.4465   -1.3187  -18.6682 C   0  0  0  0  0  0  0  0  0  0  0  0
   -5.9802   -0.5253  -17.6687 N   0  0  0  0  0  0  0  0  0  0  0  0
   -5.1217    0.4066  -18.0097 C   0  0  0  0  0  0  0  0  0  0  0  0
   -4.6397    0.6100  -19.3342 C   0  0  0  0  0  0  0  0  0  0  0  0
   -3.5994    1.5291  -19.6462 C   0  0  0  0  0  0  0  0  0  0  0  0
   -3.0578    1.5685  -20.9025 C   0  0  0  0  0  0  0  0  0  0  0  0
   -3.6252    0.7947  -21.9343 C   0  0  0  0  0  0  0  0  0  0  0  0
   -4.6897   -0.0306  -21.6858 C   0  0  0  0  0  0  0  0  0  0  0  0
   -5.1753   -0.2094  -20.3649 C   0  0  0  0  0  0  0  0  0  0  0  0
   -9.0273   -2.1181  -23.8559 C   0  0  0  0  0  0  0  0  0  0  0  0
  -10.3645   -2.8157  -24.0963 C   0  0  0  0  0  0  0  0  0  0  0  0
  -13.1985   -3.4589  -22.1883 H   0  0  0  0  0  0  0  0  0  0  0  0
  -13.0266   -2.3437  -23.5503 H   0  0  0  0  0  0  0  0  0  0  0  0
  -12.8322   -4.0882  -23.8083 H   0  0  0  0  0  0  0  0  0  0  0  0
  -11.0119   -2.2970  -22.1274 H   0  0  0  0  0  0  0  0  0  0  0  0
  -11.3910   -4.9902  -21.6204 H   0  0  0  0  0  0  0  0  0  0  0  0
   -9.1508   -5.6851  -21.4081 H   0  0  0  0  0  0  0  0  0  0  0  0
   -8.1087   -4.4983  -23.7056 H   0  0  0  0  0  0  0  0  0  0  0  0
   -7.2562   -4.4221  -22.1786 H   0  0  0  0  0  0  0  0  0  0  0  0
   -6.8218   -3.1710  -20.3971 H   0  0  0  0  0  0  0  0  0  0  0  0
   -5.9485   -2.4513  -21.7383 H   0  0  0  0  0  0  0  0  0  0  0  0
   -7.1401   -2.1049  -18.3677 H   0  0  0  0  0  0  0  0  0  0  0  0
   -4.7420    1.0206  -17.1939 H   0  0  0  0  0  0  0  0  0  0  0  0
   -3.2580    2.2287  -18.8851 H   0  0  0  0  0  0  0  0  0  0  0  0
   -2.1553    2.1340  -21.1183 H   0  0  0  0  0  0  0  0  0  0  0  0
   -3.1966    0.8384  -22.9261 H   0  0  0  0  0  0  0  0  0  0  0  0
   -5.1698   -0.5462  -22.5123 H   0  0  0  0  0  0  0  0  0  0  0  0
   -9.1811   -1.0571  -23.6488 H   0  0  0  0  0  0  0  0  0  0  0  0
   -8.4030   -2.1951  -24.7580 H   0  0  0  0  0  0  0  0  0  0  0  0
  -10.2061   -3.7309  -24.6773 H   0  0  0  0  0  0  0  0  0  0  0  0
  -10.9656   -2.1631  -24.7430 H   0  0  0  0  0  0  0  0  0  0  0  0
  1  2  1  0
  2  3  1  0
  3  4  2  0
  4  5  1  0
  5  6  1  0
  6  7  1  0
  7  8  2  0
  7  9  1  0
  9 10  1  0
 10 11  2  0
 11 12  1  0
 12 13  2  0
 13 14  1  0
 14 15  2  0
 15 16  1  0
 16 17  2  0
 17 18  1  0
 18 19  2  0
  6 20  1  0
 20 21  1  0
 21  2  1  0
 19 10  1  0
 19 14  1  0
  1 22  1  0
  1 23  1  0
  1 24  1  0
  2 25  1  1
  3 26  1  0
  4 27  1  0
  5 28  1  0
  5 29  1  0
  9 30  1  0
  9 31  1  0
 11 32  1  0
 13 33  1  0
 15 34  1  0
 16 35  1  0
 17 36  1  0
 18 37  1  0
 20 38  1  0
 20 39  1  0
 21 40  1  0
 21 41  1  0
M  END
>  <RMSD>  (80) 
0.11110148513150474

$$$$

     RDKit          3D

 46 48  0  0  0  0  0  0  0  0999 V2000
   -8.5821    0.4080  -26.4172 C   0  0  0  0  0  0  0  0  0  0  0  0
   -8.3649   -0.4051  -25.1416 C   0  0  1  0  0  0  0  0  0  0  0  0
   -9.5724   -1.3049  -24.8547 C   0  0  0  0  0  0  0  0  0  0  0  0
   -9.4181   -2.1499  -23.5720 C   0  0  1  0  0  0  0  0  0  0  0  0
  -10.1124   -3.5127  -23.6954 C   0  0  0  0  0  0  0  0  0  0  0  0
   -8.0167   -2.3179  -23.1530 N   0  0  0  0  0  0  0  0  0  0  0  0
   -7.6186   -1.4044  -22.1313 C   0  0  0  0  0  0  0  0  0  0  0  0
   -7.9507   -0.2433  -22.0955 O   0  0  0  0  0  0  0  0  0  0  0  0
   -6.8185   -2.0776  -21.0152 C   0  0  0  0  0  0  0  0  0  0  0  0
   -6.1620   -1.1675  -20.0103 C   0  0  0  0  0  0  0  0  0  0  0  0
   -6.5015   -1.2634  -18.6846 C   0  0  0  0  0  0  0  0  0  0  0  0
   -6.0039   -0.4990  -17.6810 N   0  0  0  0  0  0  0  0  0  0  0  0
   -5.0853    0.3798  -18.0073 C   0  0  0  0  0  0  0  0  0  0  0  0
   -4.6025    0.5638  -19.3313 C   0  0  0  0  0  0  0  0  0  0  0  0
   -3.5795    1.4936  -19.6344 C   0  0  0  0  0  0  0  0  0  0  0  0
   -3.0977    1.6059  -20.9115 C   0  0  0  0  0  0  0  0  0  0  0  0
   -3.6264    0.7996  -21.9449 C   0  0  0  0  0  0  0  0  0  0  0  0
   -4.6321   -0.0905  -21.6796 C   0  0  0  0  0  0  0  0  0  0  0  0
   -5.1529   -0.2303  -20.3650 C   0  0  0  0  0  0  0  0  0  0  0  0
   -7.0451   -2.4606  -24.2524 C   0  0  1  0  0  0  0  0  0  0  0  0
   -7.2328   -3.7820  -25.0043 C   0  0  0  0  0  0  0  0  0  0  0  0
   -7.0711   -1.2401  -25.2112 C   0  0  0  0  0  0  0  0  0  0  0  0
   -9.4706    1.0436  -26.3454 H   0  0  0  0  0  0  0  0  0  0  0  0
   -8.7290   -0.2490  -27.2810 H   0  0  0  0  0  0  0  0  0  0  0  0
   -7.7360    1.0594  -26.6531 H   0  0  0  0  0  0  0  0  0  0  0  0
   -8.2682    0.2700  -24.2868 H   0  0  0  0  0  0  0  0  0  0  0  0
   -9.7517   -1.9582  -25.7241 H   0  0  0  0  0  0  0  0  0  0  0  0
  -10.4742   -0.6784  -24.7692 H   0  0  0  0  0  0  0  0  0  0  0  0
   -9.8722   -1.6154  -22.7296 H   0  0  0  0  0  0  0  0  0  0  0  0
   -9.8111   -4.1698  -22.8736 H   0  0  0  0  0  0  0  0  0  0  0  0
  -11.2042   -3.4046  -23.6779 H   0  0  0  0  0  0  0  0  0  0  0  0
   -9.8468   -4.0045  -24.6344 H   0  0  0  0  0  0  0  0  0  0  0  0
   -7.5670   -2.6859  -20.4842 H   0  0  0  0  0  0  0  0  0  0  0  0
   -6.1109   -2.7790  -21.4862 H   0  0  0  0  0  0  0  0  0  0  0  0
   -7.2133   -2.0214  -18.3566 H   0  0  0  0  0  0  0  0  0  0  0  0
   -4.6774    0.9942  -17.2033 H   0  0  0  0  0  0  0  0  0  0  0  0
   -3.1949    2.1118  -18.8277 H   0  0  0  0  0  0  0  0  0  0  0  0
   -2.3062    2.3125  -21.1371 H   0  0  0  0  0  0  0  0  0  0  0  0
   -3.2365    0.8954  -22.9552 H   0  0  0  0  0  0  0  0  0  0  0  0
   -5.0445   -0.7027  -22.4777 H   0  0  0  0  0  0  0  0  0  0  0  0
   -6.0649   -2.4996  -23.7607 H   0  0  0  0  0  0  0  0  0  0  0  0
   -7.4775   -4.5807  -24.2968 H   0  0  0  0  0  0  0  0  0  0  0  0
   -8.0330   -3.7229  -25.7548 H   0  0  0  0  0  0  0  0  0  0  0  0
   -6.3077   -4.0479  -25.5321 H   0  0  0  0  0  0  0  0  0  0  0  0
   -6.2182   -0.5789  -25.0031 H   0  0  0  0  0  0  0  0  0  0  0  0
   -6.9315   -1.6126  -26.2349 H   0  0  0  0  0  0  0  0  0  0  0  0
  1  2  1  0
  2  3  1  0
  3  4  1  0
  4  5  1  0
  4  6  1  0
  6  7  1  0
  7  8  2  0
  7  9  1  0
  9 10  1  0
 10 11  2  0
 11 12  1  0
 12 13  2  0
 13 14  1  0
 14 15  2  0
 15 16  1  0
 16 17  2  0
 17 18  1  0
 18 19  2  0
  6 20  1  0
 20 21  1  0
 20 22  1  0
 22  2  1  0
 19 10  1  0
 19 14  1  0
  1 23  1  0
  1 24  1  0
  1 25  1  0
  2 26  1  1
  3 27  1  0
  3 28  1  0
  4 29  1  1
  5 30  1  0
  5 31  1  0
  5 32  1  0
  9 33  1  0
  9 34  1  0
 11 35  1  0
 13 36  1  0
 15 37  1  0
 16 38  1  0
 17 39  1  0
 18 40  1  0
 20 41  1  1
 21 42  1  0
 21 43  1  0
 21 44  1  0
 22 45  1  0
 22 46  1  0
M  END
>  <RMSD>  (81) 
0.031184285641128625

$$$$

     RDKit          3D

 65 70  0  0  0  0  0  0  0  0999 V2000
   -5.6572    0.9245  -25.5387 O   0  0  0  0  0  0  0  0  0  0  0  0
   -6.7640    0.6449  -25.1165 C   0  0  0  0  0  0  0  0  0  0  0  0
   -7.5900   -0.5136  -25.6875 C   0  0  0  0  0  0  0  0  0  0  0  0
   -8.3668   -1.2258  -24.6287 N   0  0  1  0  0  0  0  0  0  0  0  0
   -9.6795   -1.7613  -25.1111 C   0  0  0  0  0  0  0  0  0  0  0  0
  -10.4427   -2.3925  -23.9698 C   0  0  0  0  0  0  0  0  0  0  0  0
  -11.8334   -2.4461  -24.0485 C   0  0  0  0  0  0  0  0  0  0  0  0
  -12.5943   -3.0123  -23.0378 C   0  0  0  0  0  0  0  0  0  0  0  0
  -11.9325   -3.5329  -21.9315 C   0  0  0  0  0  0  0  0  0  0  0  0
  -12.8688   -4.2336  -20.6408 Cl  0  0  0  0  0  0  0  0  0  0  0  0
  -10.5509   -3.4817  -21.8230 C   0  0  0  0  0  0  0  0  0  0  0  0
   -9.7826   -2.9143  -22.8468 C   0  0  0  0  0  0  0  0  0  0  0  0
   -8.2828   -2.7531  -22.6560 C   0  0  2  0  0  0  0  0  0  0  0  0
   -7.5438   -3.9500  -22.0350 C   0  0  0  0  0  0  0  0  0  0  0  0
   -6.3420   -3.3277  -21.3118 C   0  0  0  0  0  0  0  0  0  0  0  0
   -6.8244   -2.0003  -20.9545 N   0  0  0  0  0  0  0  0  0  0  0  0
   -6.1852   -1.1536  -20.0023 C   0  0  0  0  0  0  0  0  0  0  0  0
   -6.5557   -1.2326  -18.6861 C   0  0  0  0  0  0  0  0  0  0  0  0
   -6.0128   -0.4970  -17.6808 N   0  0  0  0  0  0  0  0  0  0  0  0
   -5.0625    0.3498  -18.0022 C   0  0  0  0  0  0  0  0  0  0  0  0
   -4.5668    0.5330  -19.3252 C   0  0  0  0  0  0  0  0  0  0  0  0
   -3.5561    1.4880  -19.6316 C   0  0  0  0  0  0  0  0  0  0  0  0
   -3.1018    1.6300  -20.9138 C   0  0  0  0  0  0  0  0  0  0  0  0
   -3.6242    0.8190  -21.9482 C   0  0  0  0  0  0  0  0  0  0  0  0
   -4.6115   -0.0986  -21.6828 C   0  0  0  0  0  0  0  0  0  0  0  0
   -5.1264   -0.2573  -20.3661 C   0  0  0  0  0  0  0  0  0  0  0  0
   -7.9583   -1.6327  -21.6438 C   0  0  0  0  0  0  0  0  0  0  0  0
   -8.5330   -0.5680  -21.5473 O   0  0  0  0  0  0  0  0  0  0  0  0
   -7.5922   -2.3615  -23.9830 C   0  0  0  0  0  0  0  0  0  0  0  0
   -7.3917    1.2879  -24.0711 N   0  0  0  0  0  0  0  0  0  0  0  0
   -6.7828    2.4314  -23.4186 C   0  0  0  0  0  0  0  0  0  0  0  0
   -6.9746    3.7325  -24.1809 C   0  0  1  0  0  0  0  0  0  0  0  0
   -6.5960    5.0000  -23.3881 C   0  0  0  0  0  0  0  0  0  0  0  0
   -5.5244    5.3301  -24.4339 C   0  0  1  0  0  0  0  0  0  0  0  0
   -4.2323    5.3185  -23.9346 F   0  0  0  0  0  0  0  0  0  0  0  0
   -5.8910    4.0752  -25.2350 C   0  0  0  0  0  0  0  0  0  0  0  0
   -8.2818   -0.1207  -26.4450 H   0  0  0  0  0  0  0  0  0  0  0  0
   -6.9094   -1.1934  -26.2067 H   0  0  0  0  0  0  0  0  0  0  0  0
   -8.5631   -0.5574  -23.8465 H   0  0  0  0  0  0  0  0  0  0  0  0
   -9.5073   -2.4942  -25.9179 H   0  0  0  0  0  0  0  0  0  0  0  0
  -10.2672   -0.9444  -25.5439 H   0  0  0  0  0  0  0  0  0  0  0  0
  -12.3308   -2.0245  -24.9187 H   0  0  0  0  0  0  0  0  0  0  0  0
  -13.6784   -3.0193  -23.0925 H   0  0  0  0  0  0  0  0  0  0  0  0
  -10.0866   -3.8811  -20.9269 H   0  0  0  0  0  0  0  0  0  0  0  0
   -8.1797   -4.4761  -21.3210 H   0  0  0  0  0  0  0  0  0  0  0  0
   -7.2540   -4.6810  -22.7945 H   0  0  0  0  0  0  0  0  0  0  0  0
   -5.4628   -3.2936  -21.9743 H   0  0  0  0  0  0  0  0  0  0  0  0
   -6.0638   -3.8825  -20.4139 H   0  0  0  0  0  0  0  0  0  0  0  0
   -7.3508   -1.9175  -18.3978 H   0  0  0  0  0  0  0  0  0  0  0  0
   -4.6332    0.9461  -17.1937 H   0  0  0  0  0  0  0  0  0  0  0  0
   -3.1639    2.1144  -18.8311 H   0  0  0  0  0  0  0  0  0  0  0  0
   -2.3448    2.3724  -21.1560 H   0  0  0  0  0  0  0  0  0  0  0  0
   -3.2663    0.9456  -22.9678 H   0  0  0  0  0  0  0  0  0  0  0  0
   -5.0174   -0.7034  -22.4901 H   0  0  0  0  0  0  0  0  0  0  0  0
   -6.5663   -2.0266  -23.8075 H   0  0  0  0  0  0  0  0  0  0  0  0
   -7.5496   -3.2141  -24.6737 H   0  0  0  0  0  0  0  0  0  0  0  0
   -8.4033    1.3342  -24.0834 H   0  0  0  0  0  0  0  0  0  0  0  0
   -5.7207    2.2197  -23.2850 H   0  0  0  0  0  0  0  0  0  0  0  0
   -7.2121    2.5129  -22.4117 H   0  0  0  0  0  0  0  0  0  0  0  0
   -7.9878    3.7842  -24.5885 H   0  0  0  0  0  0  0  0  0  0  0  0
   -7.3932    5.7401  -23.2896 H   0  0  0  0  0  0  0  0  0  0  0  0
   -6.1756    4.8014  -22.3995 H   0  0  0  0  0  0  0  0  0  0  0  0
   -5.6528    6.2781  -24.9569 H   0  0  0  0  0  0  0  0  0  0  0  0
   -5.0763    3.3554  -25.3071 H   0  0  0  0  0  0  0  0  0  0  0  0
   -6.2672    4.2634  -26.2447 H   0  0  0  0  0  0  0  0  0  0  0  0
  1  2  2  0
  2  3  1  0
  3  4  1  0
  4  5  1  0
  5  6  1  0
  6  7  2  0
  7  8  1  0
  8  9  2  0
  9 10  1  0
  9 11  1  0
 11 12  2  0
 12 13  1  0
 13 14  1  1
 14 15  1  0
 15 16  1  0
 16 17  1  0
 17 18  2  0
 18 19  1  0
 19 20  2  0
 20 21  1  0
 21 22  2  0
 22 23  1  0
 23 24  2  0
 24 25  1  0
 25 26  2  0
 16 27  1  0
 27 28  2  0
 13 29  1  0
  2 30  1  0
 30 31  1  0
 31 32  1  0
 32 33  1  0
 33 34  1  0
 34 35  1  0
 34 36  1  0
 29  4  1  0
 36 32  1  0
 12  6  1  0
 27 13  1  0
 26 17  1  0
 26 21  1  0
  3 37  1  0
  3 38  1  0
  4 39  1  1
  5 40  1  0
  5 41  1  0
  7 42  1  0
  8 43  1  0
 11 44  1  0
 14 45  1  0
 14 46  1  0
 15 47  1  0
 15 48  1  0
 18 49  1  0
 20 50  1  0
 22 51  1  0
 23 52  1  0
 24 53  1  0
 25 54  1  0
 29 55  1  0
 29 56  1  0
 30 57  1  0
 31 58  1  0
 31 59  1  0
 32 60  1  6
 33 61  1  0
 33 62  1  0
 34 63  1  6
 36 64  1  0
 36 65  1  0
M  CHG  1   4   1
M  END
>  <RMSD>  (82) 
0.06719878215016586

$$$$
