obj01
  PyMOL2.5          3D                             0

 50 54  0  0  1  0  0  0  0  0999 V2000
    7.3184   -4.1626   22.8384 C   0  0  0  0  0  0  0  0  0  0  0  0
    7.5107   -2.9803   21.8890 C   0  0  1  0  0  0  0  0  0  0  0  0
    6.2253   -2.5327   21.1683 C   0  0  0  0  0  0  0  0  0  0  0  0
    6.5608   -1.1812   20.7631 N   0  0  0  0  0  0  0  0  0  0  0  0
    5.8786   -0.4258   19.7845 C   0  0  0  0  0  0  0  0  0  0  0  0
    6.2970   -0.4755   18.4786 C   0  0  0  0  0  0  0  0  0  0  0  0
    5.7264    0.2209   17.4638 N   0  0  0  0  0  0  0  0  0  0  0  0
    4.7126    0.9949   17.7743 C   0  0  0  0  0  0  0  0  0  0  0  0
    4.1881    1.1465   19.0906 C   0  0  0  0  0  0  0  0  0  0  0  0
    3.0955    2.0061   19.3680 C   0  0  0  0  0  0  0  0  0  0  0  0
    2.6097    2.1302   20.6398 C   0  0  0  0  0  0  0  0  0  0  0  0
    3.1946    1.4040   21.7000 C   0  0  0  0  0  0  0  0  0  0  0  0
    4.2594    0.5703   21.4614 C   0  0  0  0  0  0  0  0  0  0  0  0
    4.7811    0.4194   20.1444 C   0  0  0  0  0  0  0  0  0  0  0  0
    7.7050   -0.6883   21.3516 C   0  0  0  0  0  0  0  0  0  0  0  0
    8.2616    0.3278   20.9977 O   0  0  0  0  0  0  0  0  0  0  0  0
    8.0932   -1.6647   22.4849 C   0  0  1  0  0  0  0  0  0  0  0  0
    7.3864   -1.2627   23.7945 C   0  0  0  0  0  0  0  0  0  0  0  0
    8.0115   -0.0916   24.3710 N   0  0  0  0  0  0  0  0  0  0  0  0
    7.2635    1.1127   24.6076 C   0  0  0  0  0  0  0  0  0  0  0  0
    7.1740    2.0683   23.4779 C   0  0  0  0  0  0  0  0  0  0  0  0
    7.0172    2.8768   22.6655 N   0  0  0  0  0  0  0  0  0  0  0  0
    9.3367   -0.1412   24.7387 C   0  0  0  0  0  0  0  0  0  0  0  0
    9.7954    0.4812   25.6803 O   0  0  0  0  0  0  0  0  0  0  0  0
   10.1630   -0.9783   23.8109 C   0  0  0  0  0  0  0  0  0  0  0  0
   11.5465   -0.9335   23.9815 C   0  0  0  0  0  0  0  0  0  0  0  0
   12.3854   -1.5193   23.0508 C   0  0  0  0  0  0  0  0  0  0  0  0
   11.8042   -2.1600   21.9596 C   0  0  0  0  0  0  0  0  0  0  0  0
   12.6068   -2.7038   21.0263 F   0  0  0  0  0  0  0  0  0  0  0  0
   10.4380   -2.2337   21.7761 C   0  0  0  0  0  0  0  0  0  0  0  0
    9.5834   -1.6541   22.7234 C   0  0  0  0  0  0  0  0  0  0  0  0
    7.0222   -5.0677   22.2887 H   0  0  0  0  0  0  0  0  0  0  0  0
    6.5311   -3.9665   23.5796 H   0  0  0  0  0  0  0  0  0  0  0  0
    8.2408   -4.3920   23.3881 H   0  0  0  0  0  0  0  0  0  0  0  0
    8.2215   -3.2838   21.1113 H   0  0  0  0  0  0  0  0  0  0  0  0
    5.3582   -2.5493   21.8515 H   0  0  0  0  0  0  0  0  0  0  0  0
    5.9703   -3.1459   20.2942 H   0  0  0  0  0  0  0  0  0  0  0  0
    7.1454   -1.1050   18.2138 H   0  0  0  0  0  0  0  0  0  0  0  0
    4.2390    1.5467   16.9627 H   0  0  0  0  0  0  0  0  0  0  0  0
    2.6638    2.5610   18.5418 H   0  0  0  0  0  0  0  0  0  0  0  0
    1.7764    2.7950   20.8469 H   0  0  0  0  0  0  0  0  0  0  0  0
    2.8012    1.5094   22.7064 H   0  0  0  0  0  0  0  0  0  0  0  0
    4.6969    0.0093   22.2828 H   0  0  0  0  0  0  0  0  0  0  0  0
    7.4525   -2.0929   24.5089 H   0  0  0  0  0  0  0  0  0  0  0  0
    6.3318   -1.0365   23.6140 H   0  0  0  0  0  0  0  0  0  0  0  0
    6.2475    0.8353   24.8893 H   0  0  0  0  0  0  0  0  0  0  0  0
    7.7450    1.6013   25.4558 H   0  0  0  0  0  0  0  0  0  0  0  0
   11.9301   -0.4033   24.8495 H   0  0  0  0  0  0  0  0  0  0  0  0
   13.4682   -1.4760   23.1270 H   0  0  0  0  0  0  0  0  0  0  0  0
   10.0595   -2.7339   20.8908 H   0  0  0  0  0  0  0  0  0  0  0  0
  1  2  1  0  0  0  0
  1 32  1  0  0  0  0
  1 33  1  0  0  0  0
  1 34  1  0  0  0  0
  2  3  1  0  0  0  0
  2 35  1  0  0  0  0
  3  4  1  0  0  0  0
  3 36  1  0  0  0  0
  3 37  1  0  0  0  0
  4  5  1  0  0  0  0
  4 15  1  0  0  0  0
  5  6  2  0  0  0  0
  6  7  1  0  0  0  0
  6 38  1  0  0  0  0
  7  8  2  0  0  0  0
  8  9  1  0  0  0  0
  8 39  1  0  0  0  0
  9 10  2  0  0  0  0
 10 11  1  0  0  0  0
 10 40  1  0  0  0  0
 11 12  2  0  0  0  0
 11 41  1  0  0  0  0
 12 13  1  0  0  0  0
 12 42  1  0  0  0  0
 13 14  2  0  0  0  0
 13 43  1  0  0  0  0
  5 14  1  0  0  0  0
  9 14  1  0  0  0  0
 15 16  2  0  0  0  0
 15 17  1  0  0  0  0
  2 17  1  0  0  0  0
 17 18  1  0  0  0  0
 18 19  1  0  0  0  0
 18 44  1  0  0  0  0
 18 45  1  0  0  0  0
 19 20  1  0  0  0  0
 19 23  1  0  0  0  0
 20 21  1  0  0  0  0
 20 46  1  0  0  0  0
 20 47  1  0  0  0  0
 21 22  3  0  0  0  0
 23 24  2  0  0  0  0
 23 25  1  0  0  0  0
 25 26  2  0  0  0  0
 26 27  1  0  0  0  0
 26 48  1  0  0  0  0
 27 28  2  0  0  0  0
 27 49  1  0  0  0  0
 28 29  1  0  0  0  0
 28 30  1  0  0  0  0
 30 31  2  0  0  0  0
 30 50  1  0  0  0  0
 17 31  1  0  0  0  0
 25 31  1  0  0  0  0
M  END
$$$$
