obj01
  PyMOL2.5          3D                             0

 42 45  0  0  1  0  0  0  0  0999 V2000
    7.7678    1.1315   25.3867 C   0  0  0  0  0  0  0  0  0  0  0  0
    8.5790    0.4475   24.3972 N   0  0  0  0  0  0  0  0  0  0  0  0
    8.0776   -0.8339   23.9396 C   0  0  0  0  0  0  0  0  0  0  0  0
    8.7296   -1.2474   22.6164 C   0  0  1  0  0  0  0  0  0  0  0  0
    8.2511   -0.3613   21.4595 C   0  0  0  0  0  0  0  0  0  0  0  0
    8.8129    0.6595   21.1188 O   0  0  0  0  0  0  0  0  0  0  0  0
    7.1070   -0.8030   20.8313 N   0  0  0  0  0  0  0  0  0  0  0  0
    6.4462   -0.0450   19.8273 C   0  0  0  0  0  0  0  0  0  0  0  0
    6.7962   -0.1675   18.5075 C   0  0  0  0  0  0  0  0  0  0  0  0
    6.2235    0.5221   17.4892 N   0  0  0  0  0  0  0  0  0  0  0  0
    5.2712    1.3727   17.7978 C   0  0  0  0  0  0  0  0  0  0  0  0
    4.7824    1.5762   19.1211 C   0  0  0  0  0  0  0  0  0  0  0  0
    3.7550    2.5103   19.4306 C   0  0  0  0  0  0  0  0  0  0  0  0
    3.3188    2.6548   20.7209 C   0  0  0  0  0  0  0  0  0  0  0  0
    3.8772    1.8781   21.7624 C   0  0  0  0  0  0  0  0  0  0  0  0
    4.8738    0.9764   21.4933 C   0  0  0  0  0  0  0  0  0  0  0  0
    5.3610    0.8214   20.1657 C   0  0  0  0  0  0  0  0  0  0  0  0
   10.2218   -1.1701   22.7540 C   0  0  0  0  0  0  0  0  0  0  0  0
   11.0409   -2.0313   22.0234 C   0  0  0  0  0  0  0  0  0  0  0  0
   12.4177   -1.8758   22.0789 C   0  0  0  0  0  0  0  0  0  0  0  0
   13.4349   -2.9558   21.1706 Cl  0  0  0  0  0  0  0  0  0  0  0  0
   12.9983   -0.8639   22.8473 C   0  0  0  0  0  0  0  0  0  0  0  0
   12.1774   -0.0114   23.5676 C   0  0  0  0  0  0  0  0  0  0  0  0
   10.7865   -0.1653   23.5320 C   0  0  0  0  0  0  0  0  0  0  0  0
    9.9164    0.7545   24.3483 C   0  0  0  0  0  0  0  0  0  0  0  0
   10.3915    1.6879   24.9670 O   0  0  0  0  0  0  0  0  0  0  0  0
    7.8706    0.6856   26.3850 H   0  0  0  0  0  0  0  0  0  0  0  0
    6.7202    1.0689   25.0838 H   0  0  0  0  0  0  0  0  0  0  0  0
    8.0661    2.1767   25.4443 H   0  0  0  0  0  0  0  0  0  0  0  0
    6.9970   -0.7384   23.8013 H   0  0  0  0  0  0  0  0  0  0  0  0
    8.2380   -1.6214   24.6936 H   0  0  0  0  0  0  0  0  0  0  0  0
    8.4323   -2.2731   22.3881 H   0  0  0  0  0  0  0  0  0  0  0  0
    6.6296   -1.6081   21.2075 H   0  0  0  0  0  0  0  0  0  0  0  0
    7.5830   -0.8615   18.2192 H   0  0  0  0  0  0  0  0  0  0  0  0
    4.8268    1.9517   16.9865 H   0  0  0  0  0  0  0  0  0  0  0  0
    3.3340    3.1113   18.6276 H   0  0  0  0  0  0  0  0  0  0  0  0
    2.5391    3.3740   20.9586 H   0  0  0  0  0  0  0  0  0  0  0  0
    3.5202    1.9983   22.7812 H   0  0  0  0  0  0  0  0  0  0  0  0
    5.3129    0.3862   22.2929 H   0  0  0  0  0  0  0  0  0  0  0  0
   10.6058   -2.8229   21.4162 H   0  0  0  0  0  0  0  0  0  0  0  0
   14.0811   -0.7517   22.8673 H   0  0  0  0  0  0  0  0  0  0  0  0
   12.6072    0.7821   24.1700 H   0  0  0  0  0  0  0  0  0  0  0  0
  1  2  1  0  0  0  0
  1 27  1  0  0  0  0
  1 28  1  0  0  0  0
  1 29  1  0  0  0  0
  2  3  1  0  0  0  0
  3  4  1  0  0  0  0
  3 30  1  0  0  0  0
  3 31  1  0  0  0  0
  4  5  1  0  0  0  0
  4 18  1  0  0  0  0
  4 32  1  0  0  0  0
  5  6  2  0  0  0  0
  5  7  1  0  0  0  0
  7  8  1  0  0  0  0
  7 33  1  0  0  0  0
  8  9  2  0  0  0  0
  9 10  1  0  0  0  0
  9 34  1  0  0  0  0
 10 11  2  0  0  0  0
 11 12  1  0  0  0  0
 11 35  1  0  0  0  0
 12 13  2  0  0  0  0
 13 14  1  0  0  0  0
 13 36  1  0  0  0  0
 14 15  2  0  0  0  0
 14 37  1  0  0  0  0
 15 16  1  0  0  0  0
 15 38  1  0  0  0  0
 16 17  2  0  0  0  0
 16 39  1  0  0  0  0
  8 17  1  0  0  0  0
 12 17  1  0  0  0  0
 18 19  2  0  0  0  0
 19 20  1  0  0  0  0
 19 40  1  0  0  0  0
 20 21  1  0  0  0  0
 20 22  2  0  0  0  0
 22 23  1  0  0  0  0
 22 41  1  0  0  0  0
 23 24  2  0  0  0  0
 23 42  1  0  0  0  0
 18 24  1  0  0  0  0
 24 25  1  0  0  0  0
  2 25  1  0  0  0  0
 25 26  2  0  0  0  0
M  END
$$$$
