obj01
  PyMOL2.5          3D                             0

 60 65  0  0  1  0  0  0  0  0999 V2000
    7.0291    3.8830   22.5261 C   0  0  0  0  0  0  0  0  0  0  0  0
    7.6456    2.8436   23.3286 N   0  0  0  0  0  0  0  0  0  0  0  0
    7.1950    2.5677   24.5730 C   0  0  0  0  0  0  0  0  0  0  0  0
    6.3948    3.2788   25.1630 O   0  0  0  0  0  0  0  0  0  0  0  0
    7.6892    1.2954   25.2404 C   0  0  0  0  0  0  0  0  0  0  0  0
    8.5180    0.3882   24.4852 N   0  0  0  0  0  0  0  0  0  0  0  0
    7.9462   -0.8433   23.9627 C   0  0  0  0  0  0  0  0  0  0  0  0
    8.6025   -1.2720   22.6203 C   0  0  2  0  0  0  0  0  0  0  0  0
    8.2210   -0.2629   21.5073 C   0  0  0  0  0  0  0  0  0  0  0  0
    8.7305    0.8149   21.2717 O   0  0  0  0  0  0  0  0  0  0  0  0
    7.1567   -0.7889   20.8072 N   0  0  0  0  0  0  0  0  0  0  0  0
    6.4617   -0.0336   19.8251 C   0  0  0  0  0  0  0  0  0  0  0  0
    6.8092   -0.1575   18.5055 C   0  0  0  0  0  0  0  0  0  0  0  0
    6.2297    0.5292   17.4893 N   0  0  0  0  0  0  0  0  0  0  0  0
    5.2709    1.3703   17.8022 C   0  0  0  0  0  0  0  0  0  0  0  0
    4.7860    1.5774   19.1271 C   0  0  0  0  0  0  0  0  0  0  0  0
    3.7481    2.5042   19.4313 C   0  0  0  0  0  0  0  0  0  0  0  0
    3.3078    2.6525   20.7185 C   0  0  0  0  0  0  0  0  0  0  0  0
    3.8677    1.8833   21.7669 C   0  0  0  0  0  0  0  0  0  0  0  0
    4.8819    0.9965   21.5007 C   0  0  0  0  0  0  0  0  0  0  0  0
    5.3814    0.8338   20.1777 C   0  0  0  0  0  0  0  0  0  0  0  0
    6.7250   -2.0877   21.2950 C   0  0  0  0  0  0  0  0  0  0  0  0
    7.9619   -2.5708   22.0611 C   0  0  2  0  0  0  0  0  0  0  0  0
    7.6914   -3.6834   23.0649 C   0  0  0  0  0  0  0  0  0  0  0  0
   10.1008   -1.3146   22.8315 C   0  0  0  0  0  0  0  0  0  0  0  0
   10.9354   -2.2019   22.1355 C   0  0  0  0  0  0  0  0  0  0  0  0
   12.3107   -2.0938   22.2456 C   0  0  0  0  0  0  0  0  0  0  0  0
   13.3198   -3.1630   21.3092 Cl  0  0  0  0  0  0  0  0  0  0  0  0
   12.9038   -1.1267   23.0604 C   0  0  0  0  0  0  0  0  0  0  0  0
   12.0830   -0.2585   23.7584 C   0  0  0  0  0  0  0  0  0  0  0  0
   10.6925   -0.3395   23.6511 C   0  0  0  0  0  0  0  0  0  0  0  0
    9.8592    0.6715   24.3866 C   0  0  0  0  0  0  0  0  0  0  0  0
   10.3227    1.6962   24.8637 O   0  0  0  0  0  0  0  0  0  0  0  0
    6.7094    0.6995   26.2384 C   0  0  0  0  0  0  0  0  0  0  0  0
    7.9129    1.4145   26.7365 C   0  0  0  0  0  0  0  0  0  0  0  0
    5.9705    3.6590   22.3472 H   0  0  0  0  0  0  0  0  0  0  0  0
    7.5366    3.9052   21.5586 H   0  0  0  0  0  0  0  0  0  0  0  0
    7.0932    4.8724   22.9934 H   0  0  0  0  0  0  0  0  0  0  0  0
    8.4711    2.3963   22.9601 H   0  0  0  0  0  0  0  0  0  0  0  0
    6.8768   -0.6710   23.8225 H   0  0  0  0  0  0  0  0  0  0  0  0
    8.0660   -1.6594   24.6923 H   0  0  0  0  0  0  0  0  0  0  0  0
    7.6091   -0.8370   18.2203 H   0  0  0  0  0  0  0  0  0  0  0  0
    4.8215    1.9388   16.9856 H   0  0  0  0  0  0  0  0  0  0  0  0
    3.3235    3.0981   18.6224 H   0  0  0  0  0  0  0  0  0  0  0  0
    2.5268    3.3702   20.9550 H   0  0  0  0  0  0  0  0  0  0  0  0
    3.5221    2.0184   22.7894 H   0  0  0  0  0  0  0  0  0  0  0  0
    5.3224    0.4181   22.3093 H   0  0  0  0  0  0  0  0  0  0  0  0
    6.4623   -2.7429   20.4596 H   0  0  0  0  0  0  0  0  0  0  0  0
    5.8474   -2.0368   21.9672 H   0  0  0  0  0  0  0  0  0  0  0  0
    8.6430   -2.9580   21.3010 H   0  0  0  0  0  0  0  0  0  0  0  0
    8.5810   -3.9097   23.6630 H   0  0  0  0  0  0  0  0  0  0  0  0
    7.3782   -4.6076   22.5666 H   0  0  0  0  0  0  0  0  0  0  0  0
    6.9000   -3.3980   23.7662 H   0  0  0  0  0  0  0  0  0  0  0  0
   10.5275   -2.9849   21.5034 H   0  0  0  0  0  0  0  0  0  0  0  0
   13.9884   -1.0557   23.1167 H   0  0  0  0  0  0  0  0  0  0  0  0
   12.5130    0.5111   24.3910 H   0  0  0  0  0  0  0  0  0  0  0  0
    5.7520    1.1933   26.3582 H   0  0  0  0  0  0  0  0  0  0  0  0
    6.6896   -0.3814   26.3374 H   0  0  0  0  0  0  0  0  0  0  0  0
    8.7091    0.8133   27.1620 H   0  0  0  0  0  0  0  0  0  0  0  0
    7.7535    2.3837   27.1992 H   0  0  0  0  0  0  0  0  0  0  0  0
  1  2  1  0  0  0  0
  1 36  1  0  0  0  0
  1 37  1  0  0  0  0
  1 38  1  0  0  0  0
  2  3  1  0  0  0  0
  2 39  1  0  0  0  0
  3  4  2  0  0  0  0
  3  5  1  0  0  0  0
  5  6  1  0  0  0  0
  5 34  1  0  0  0  0
  6  7  1  0  0  0  0
  7 40  1  0  0  0  0
  7 41  1  0  0  0  0
  7  8  1  0  0  0  0
  8  9  1  0  0  0  0
  8 25  1  0  0  0  0
  9 10  2  0  0  0  0
  9 11  1  0  0  0  0
 11 12  1  0  0  0  0
 11 22  1  0  0  0  0
 12 13  2  0  0  0  0
 13 14  1  0  0  0  0
 13 42  1  0  0  0  0
 14 15  2  0  0  0  0
 15 16  1  0  0  0  0
 15 43  1  0  0  0  0
 16 17  2  0  0  0  0
 17 18  1  0  0  0  0
 17 44  1  0  0  0  0
 18 19  2  0  0  0  0
 18 45  1  0  0  0  0
 19 20  1  0  0  0  0
 19 46  1  0  0  0  0
 20 21  2  0  0  0  0
 20 47  1  0  0  0  0
 12 21  1  0  0  0  0
 16 21  1  0  0  0  0
 22 23  1  0  0  0  0
 22 48  1  0  0  0  0
 22 49  1  0  0  0  0
  8 23  1  0  0  0  0
 23 24  1  0  0  0  0
 23 50  1  0  0  0  0
 24 51  1  0  0  0  0
 24 52  1  0  0  0  0
 24 53  1  0  0  0  0
 25 26  2  0  0  0  0
 26 27  1  0  0  0  0
 26 54  1  0  0  0  0
 27 28  1  0  0  0  0
 27 29  2  0  0  0  0
 29 30  1  0  0  0  0
 29 55  1  0  0  0  0
 30 31  2  0  0  0  0
 30 56  1  0  0  0  0
 25 31  1  0  0  0  0
 31 32  1  0  0  0  0
  6 32  1  0  0  0  0
 32 33  2  0  0  0  0
 34 35  1  0  0  0  0
 34 57  1  0  0  0  0
 34 58  1  0  0  0  0
  5 35  1  0  0  0  0
 35 59  1  0  0  0  0
 35 60  1  0  0  0  0
M  END
$$$$
