obj01
  PyMOL2.5          3D                             0

 58 62  0  0  1  0  0  0  0  0999 V2000
    6.9797    3.8010   22.8950 C   0  0  0  0  0  0  0  0  0  0  0  0
    7.6286    2.6222   23.4791 N   0  3  0  0  0  0  0  0  0  0  0  0
    7.0758    2.2767   24.8098 C   0  0  0  0  0  0  0  0  0  0  0  0
    7.6434    0.9588   25.3940 C   0  0  0  0  0  0  0  0  0  0  0  0
    8.4730    0.1817   24.4912 N   0  0  0  0  0  0  0  0  0  0  0  0
    7.9320   -1.0477   23.9473 C   0  0  0  0  0  0  0  0  0  0  0  0
    8.5688   -1.3878   22.5801 C   0  0  2  0  0  0  0  0  0  0  0  0
    8.0902   -0.2968   21.5954 C   0  0  0  0  0  0  0  0  0  0  0  0
    8.4066    0.8843   21.6026 O   0  0  0  0  0  0  0  0  0  0  0  0
    7.1339   -0.8336   20.7784 N   0  0  0  0  0  0  0  0  0  0  0  0
    6.4488   -0.0497   19.8162 C   0  0  0  0  0  0  0  0  0  0  0  0
    6.8070   -0.1577   18.4965 C   0  0  0  0  0  0  0  0  0  0  0  0
    6.2423    0.5489   17.4886 N   0  0  0  0  0  0  0  0  0  0  0  0
    5.2784    1.3830   17.8085 C   0  0  0  0  0  0  0  0  0  0  0  0
    4.8008    1.5791   19.1387 C   0  0  0  0  0  0  0  0  0  0  0  0
    3.7524    2.4918   19.4347 C   0  0  0  0  0  0  0  0  0  0  0  0
    3.3010    2.6475   20.7176 C   0  0  0  0  0  0  0  0  0  0  0  0
    3.8745    1.8973   21.7665 C   0  0  0  0  0  0  0  0  0  0  0  0
    4.9002    1.0181   21.5109 C   0  0  0  0  0  0  0  0  0  0  0  0
    5.3955    0.8400   20.1851 C   0  0  0  0  0  0  0  0  0  0  0  0
    6.7117   -2.1559   21.1989 C   0  0  0  0  0  0  0  0  0  0  0  0
    7.9458   -2.6660   21.9548 C   0  0  2  0  0  0  0  0  0  0  0  0
    7.6739   -3.8179   22.9184 C   0  0  0  0  0  0  0  0  0  0  0  0
   10.0749   -1.3976   22.7639 C   0  0  0  0  0  0  0  0  0  0  0  0
   10.9278   -2.2767   22.0807 C   0  0  0  0  0  0  0  0  0  0  0  0
   12.2929   -2.1478   22.2211 C   0  0  0  0  0  0  0  0  0  0  0  0
   13.0962   -2.9739   21.5276 F   0  0  0  0  0  0  0  0  0  0  0  0
   12.8758   -1.1851   23.0339 C   0  0  0  0  0  0  0  0  0  0  0  0
   12.0420   -0.3355   23.7342 C   0  0  0  0  0  0  0  0  0  0  0  0
   10.6552   -0.4399   23.6127 C   0  0  0  0  0  0  0  0  0  0  0  0
    9.7982    0.4998   24.4084 C   0  0  0  0  0  0  0  0  0  0  0  0
   10.2518    1.5157   24.9354 O   0  0  0  0  0  0  0  0  0  0  0  0
    7.1499    4.6794   23.5300 H   0  0  0  0  0  0  0  0  0  0  0  0
    7.3856    3.9990   21.9027 H   0  0  0  0  0  0  0  0  0  0  0  0
    5.8972    3.6393   22.8025 H   0  0  0  0  0  0  0  0  0  0  0  0
    8.6407    2.7990   23.5989 H   0  0  0  0  0  0  0  0  0  0  0  0
    7.5558    1.8192   22.8334 H   0  0  0  0  0  0  0  0  0  0  0  0
    7.3007    3.0908   25.5106 H   0  0  0  0  0  0  0  0  0  0  0  0
    5.9803    2.2153   24.7561 H   0  0  0  0  0  0  0  0  0  0  0  0
    8.2435    1.1621   26.2848 H   0  0  0  0  0  0  0  0  0  0  0  0
    6.8238    0.3073   25.7194 H   0  0  0  0  0  0  0  0  0  0  0  0
    6.8501   -0.9133   23.8215 H   0  0  0  0  0  0  0  0  0  0  0  0
    8.1142   -1.8701   24.6495 H   0  0  0  0  0  0  0  0  0  0  0  0
    7.6114   -0.8350   18.2166 H   0  0  0  0  0  0  0  0  0  0  0  0
    4.8133    1.9482   16.9998 H   0  0  0  0  0  0  0  0  0  0  0  0
    3.3225    3.0643   18.6197 H   0  0  0  0  0  0  0  0  0  0  0  0
    2.5057    3.3543   20.9406 H   0  0  0  0  0  0  0  0  0  0  0  0
    3.5194    2.0361   22.7855 H   0  0  0  0  0  0  0  0  0  0  0  0
    5.3195    0.4412   22.3296 H   0  0  0  0  0  0  0  0  0  0  0  0
    5.8365   -2.1075   21.8672 H   0  0  0  0  0  0  0  0  0  0  0  0
    6.4429   -2.7690   20.3371 H   0  0  0  0  0  0  0  0  0  0  0  0
    8.6450   -3.0000   21.1841 H   0  0  0  0  0  0  0  0  0  0  0  0
    7.3341   -4.7095   22.3851 H   0  0  0  0  0  0  0  0  0  0  0  0
    6.8926   -3.5587   23.6419 H   0  0  0  0  0  0  0  0  0  0  0  0
    8.5716   -4.0899   23.4860 H   0  0  0  0  0  0  0  0  0  0  0  0
   10.5610   -3.0612   21.4297 H   0  0  0  0  0  0  0  0  0  0  0  0
   13.9565   -1.1223   23.0911 H   0  0  0  0  0  0  0  0  0  0  0  0
   12.4487    0.4285   24.3868 H   0  0  0  0  0  0  0  0  0  0  0  0
  1  2  1  0  0  0  0
  1 33  1  0  0  0  0
  1 34  1  0  0  0  0
  1 35  1  0  0  0  0
  2  3  1  0  0  0  0
  2 36  1  0  0  0  0
  2 37  1  0  0  0  0
  3  4  1  0  0  0  0
  3 38  1  0  0  0  0
  3 39  1  0  0  0  0
  4  5  1  0  0  0  0
  4 40  1  0  0  0  0
  4 41  1  0  0  0  0
  5  6  1  0  0  0  0
  6 42  1  0  0  0  0
  6 43  1  0  0  0  0
  6  7  1  0  0  0  0
  7  8  1  0  0  0  0
  7 24  1  0  0  0  0
  8  9  2  0  0  0  0
  8 10  1  0  0  0  0
 10 11  1  0  0  0  0
 10 21  1  0  0  0  0
 11 12  2  0  0  0  0
 12 13  1  0  0  0  0
 12 44  1  0  0  0  0
 13 14  2  0  0  0  0
 14 15  1  0  0  0  0
 14 45  1  0  0  0  0
 15 16  2  0  0  0  0
 16 17  1  0  0  0  0
 16 46  1  0  0  0  0
 17 18  2  0  0  0  0
 17 47  1  0  0  0  0
 18 19  1  0  0  0  0
 18 48  1  0  0  0  0
 19 20  2  0  0  0  0
 19 49  1  0  0  0  0
 11 20  1  0  0  0  0
 15 20  1  0  0  0  0
 21 22  1  0  0  0  0
 21 50  1  0  0  0  0
 21 51  1  0  0  0  0
  7 22  1  0  0  0  0
 22 23  1  0  0  0  0
 22 52  1  0  0  0  0
 23 53  1  0  0  0  0
 23 54  1  0  0  0  0
 23 55  1  0  0  0  0
 24 25  2  0  0  0  0
 25 26  1  0  0  0  0
 25 56  1  0  0  0  0
 26 27  1  0  0  0  0
 26 28  2  0  0  0  0
 28 29  1  0  0  0  0
 28 57  1  0  0  0  0
 29 30  2  0  0  0  0
 29 58  1  0  0  0  0
 24 30  1  0  0  0  0
 30 31  1  0  0  0  0
  5 31  1  0  0  0  0
 31 32  2  0  0  0  0
M  END
$$$$
