obj01
  PyMOL2.5          3D                             0

 63 68  0  0  1  0  0  0  0  0999 V2000
    6.9800    3.7762   22.9073 C   0  0  0  0  0  0  0  0  0  0  0  0
    7.5608    2.6062   23.5344 N   0  0  0  0  0  0  0  0  0  0  0  0
    7.1324    2.2497   24.7628 C   0  0  0  0  0  0  0  0  0  0  0  0
    6.3154    2.9034   25.4015 O   0  0  0  0  0  0  0  0  0  0  0  0
    7.7220    0.9762   25.3799 C   0  0  0  0  0  0  0  0  0  0  0  0
    8.5301    0.1659   24.4963 N   0  0  0  0  0  0  0  0  0  0  0  0
    7.9640   -1.0445   23.9463 C   0  0  0  0  0  0  0  0  0  0  0  0
    8.5678   -1.4150   22.5669 C   0  0  2  0  0  0  0  0  0  0  0  0
    8.1619   -0.3439   21.5247 C   0  0  0  0  0  0  0  0  0  0  0  0
    8.6175    0.7755   21.3857 O   0  0  0  0  0  0  0  0  0  0  0  0
    7.1245   -0.8428   20.7794 N   0  0  0  0  0  0  0  0  0  0  0  0
    6.4532   -0.0455   19.8182 C   0  0  0  0  0  0  0  0  0  0  0  0
    6.8115   -0.1490   18.5001 C   0  0  0  0  0  0  0  0  0  0  0  0
    6.2387    0.5475   17.4873 N   0  0  0  0  0  0  0  0  0  0  0  0
    5.2742    1.3784   17.8090 C   0  0  0  0  0  0  0  0  0  0  0  0
    4.7961    1.5810   19.1373 C   0  0  0  0  0  0  0  0  0  0  0  0
    3.7482    2.4972   19.4303 C   0  0  0  0  0  0  0  0  0  0  0  0
    3.3030    2.6474   20.7159 C   0  0  0  0  0  0  0  0  0  0  0  0
    3.8743    1.8941   21.7689 C   0  0  0  0  0  0  0  0  0  0  0  0
    4.8962    1.0113   21.5124 C   0  0  0  0  0  0  0  0  0  0  0  0
    5.3933    0.8409   20.1865 C   0  0  0  0  0  0  0  0  0  0  0  0
    6.6560   -2.1433   21.2012 C   0  0  0  0  0  0  0  0  0  0  0  0
    7.8434   -2.6813   22.0141 C   0  0  2  0  0  0  0  0  0  0  0  0
    7.3910   -3.6879   23.0860 C   0  0  0  0  0  0  0  0  0  0  0  0
    6.9155   -4.9393   22.5183 N   0  0  0  0  0  0  0  0  0  0  0  0
    5.7185   -5.2303   21.9451 C   0  0  0  0  0  0  0  0  0  0  0  0
    5.8430   -6.4737   21.3636 C   0  0  0  0  0  0  0  0  0  0  0  0
    7.1792   -6.8433   21.6227 C   0  0  0  0  0  0  0  0  0  0  0  0
    7.8111   -5.9047   22.3080 N   0  0  0  0  0  0  0  0  0  0  0  0
   10.0780   -1.4542   22.7412 C   0  0  0  0  0  0  0  0  0  0  0  0
   10.9174   -2.3218   22.0281 C   0  0  0  0  0  0  0  0  0  0  0  0
   12.2946   -2.2180   22.1639 C   0  0  0  0  0  0  0  0  0  0  0  0
   13.3281   -3.3034   21.2744 Cl  0  0  0  0  0  0  0  0  0  0  0  0
   12.8853   -1.2574   22.9867 C   0  0  0  0  0  0  0  0  0  0  0  0
   12.0653   -0.4079   23.7004 C   0  0  0  0  0  0  0  0  0  0  0  0
   10.6809   -0.5126   23.5972 C   0  0  0  0  0  0  0  0  0  0  0  0
    9.8740    0.4015   24.4698 C   0  0  0  0  0  0  0  0  0  0  0  0
   10.3760    1.3064   25.1251 O   0  0  0  0  0  0  0  0  0  0  0  0
    5.9160    3.6128   22.6943 H   0  0  0  0  0  0  0  0  0  0  0  0
    7.5059    3.9679   21.9691 H   0  0  0  0  0  0  0  0  0  0  0  0
    7.0671    4.6546   23.5573 H   0  0  0  0  0  0  0  0  0  0  0  0
    8.0937    1.9638   22.9509 H   0  0  0  0  0  0  0  0  0  0  0  0
    6.8798    0.3835   25.7479 H   0  0  0  0  0  0  0  0  0  0  0  0
    8.3202    1.2677   26.2516 H   0  0  0  0  0  0  0  0  0  0  0  0
    6.8853   -0.8833   23.8466 H   0  0  0  0  0  0  0  0  0  0  0  0
    8.1368   -1.8804   24.6376 H   0  0  0  0  0  0  0  0  0  0  0  0
    7.6117   -0.8310   18.2201 H   0  0  0  0  0  0  0  0  0  0  0  0
    4.8202    1.9443   16.9950 H   0  0  0  0  0  0  0  0  0  0  0  0
    3.3190    3.0726   18.6123 H   0  0  0  0  0  0  0  0  0  0  0  0
    2.5058    3.3500   20.9403 H   0  0  0  0  0  0  0  0  0  0  0  0
    3.5268    2.0376   22.7910 H   0  0  0  0  0  0  0  0  0  0  0  0
    5.3298    0.4398   22.3299 H   0  0  0  0  0  0  0  0  0  0  0  0
    5.7371   -2.0848   21.8118 H   0  0  0  0  0  0  0  0  0  0  0  0
    6.4199   -2.7587   20.3325 H   0  0  0  0  0  0  0  0  0  0  0  0
    8.5080   -3.1903   21.3103 H   0  0  0  0  0  0  0  0  0  0  0  0
    8.2408   -3.9340   23.7266 H   0  0  0  0  0  0  0  0  0  0  0  0
    6.5978   -3.2620   23.7108 H   0  0  0  0  0  0  0  0  0  0  0  0
    4.8620   -4.5640   22.0146 H   0  0  0  0  0  0  0  0  0  0  0  0
    5.1097   -7.0548   20.8194 H   0  0  0  0  0  0  0  0  0  0  0  0
    7.7485   -7.7256   21.3452 H   0  0  0  0  0  0  0  0  0  0  0  0
   10.5098   -3.0821   21.3683 H   0  0  0  0  0  0  0  0  0  0  0  0
   13.9655   -1.1806   23.0638 H   0  0  0  0  0  0  0  0  0  0  0  0
   12.4659    0.3578   24.3576 H   0  0  0  0  0  0  0  0  0  0  0  0
  1  2  1  0  0  0  0
  1 39  1  0  0  0  0
  1 40  1  0  0  0  0
  1 41  1  0  0  0  0
  2  3  1  0  0  0  0
  2 42  1  0  0  0  0
  3  4  2  0  0  0  0
  3  5  1  0  0  0  0
  5  6  1  0  0  0  0
  5 43  1  0  0  0  0
  5 44  1  0  0  0  0
  6  7  1  0  0  0  0
  7 45  1  0  0  0  0
  7 46  1  0  0  0  0
  7  8  1  0  0  0  0
  8  9  1  0  0  0  0
  8 30  1  0  0  0  0
  9 10  2  0  0  0  0
  9 11  1  0  0  0  0
 11 12  1  0  0  0  0
 11 22  1  0  0  0  0
 12 13  2  0  0  0  0
 13 14  1  0  0  0  0
 13 47  1  0  0  0  0
 14 15  2  0  0  0  0
 15 16  1  0  0  0  0
 15 48  1  0  0  0  0
 16 17  2  0  0  0  0
 17 18  1  0  0  0  0
 17 49  1  0  0  0  0
 18 19  2  0  0  0  0
 18 50  1  0  0  0  0
 19 20  1  0  0  0  0
 19 51  1  0  0  0  0
 20 21  2  0  0  0  0
 20 52  1  0  0  0  0
 12 21  1  0  0  0  0
 16 21  1  0  0  0  0
 22 23  1  0  0  0  0
 22 53  1  0  0  0  0
 22 54  1  0  0  0  0
  8 23  1  0  0  0  0
 23 24  1  0  0  0  0
 23 55  1  0  0  0  0
 24 25  1  0  0  0  0
 24 56  1  0  0  0  0
 24 57  1  0  0  0  0
 25 26  1  0  0  0  0
 26 27  2  0  0  0  0
 26 58  1  0  0  0  0
 27 28  1  0  0  0  0
 27 59  1  0  0  0  0
 28 29  2  0  0  0  0
 28 60  1  0  0  0  0
 25 29  1  0  0  0  0
 30 31  2  0  0  0  0
 31 32  1  0  0  0  0
 31 61  1  0  0  0  0
 32 33  1  0  0  0  0
 32 34  2  0  0  0  0
 34 35  1  0  0  0  0
 34 62  1  0  0  0  0
 35 36  2  0  0  0  0
 35 63  1  0  0  0  0
 30 36  1  0  0  0  0
 36 37  1  0  0  0  0
  6 37  1  0  0  0  0
 37 38  2  0  0  0  0
M  END
$$$$
