obj01
  PyMOL2.5          3D                             0

 40 42  0  0  0  0  0  0  0  0999 V2000
   10.3710    1.6265   25.0807 C   0  0  0  0  0  0  0  0  0  0  0  0
    9.6935    0.7907   24.0089 C   0  0  0  0  0  0  0  0  0  0  0  0
   10.7756   -0.0128   23.2524 C   0  0  0  0  0  0  0  0  0  0  0  0
   10.2251   -1.3244   22.6670 C   0  0  0  0  0  0  0  0  0  0  0  0
    8.7931   -1.2363   22.4224 N   0  0  0  0  0  0  0  0  0  0  0  0
    8.4136   -0.6963   21.2145 C   0  0  0  0  0  0  0  0  0  0  0  0
    9.1851   -0.0655   20.5164 O   0  0  0  0  0  0  0  0  0  0  0  0
    7.0026   -1.0622   20.7804 C   0  0  0  0  0  0  0  0  0  0  0  0
    6.3806   -0.1243   19.8000 C   0  0  0  0  0  0  0  0  0  0  0  0
    6.7787   -0.1740   18.4886 C   0  0  0  0  0  0  0  0  0  0  0  0
    6.2554    0.5642   17.4795 N   0  0  0  0  0  0  0  0  0  0  0  0
    5.2902    1.3959   17.8062 C   0  0  0  0  0  0  0  0  0  0  0  0
    4.7851    1.5642   19.1286 C   0  0  0  0  0  0  0  0  0  0  0  0
    3.7449    2.4804   19.4315 C   0  0  0  0  0  0  0  0  0  0  0  0
    3.3070    2.6436   20.7200 C   0  0  0  0  0  0  0  0  0  0  0  0
    3.8876    1.8966   21.7684 C   0  0  0  0  0  0  0  0  0  0  0  0
    4.8860    0.9900   21.4991 C   0  0  0  0  0  0  0  0  0  0  0  0
    5.3582    0.7952   20.1702 C   0  0  0  0  0  0  0  0  0  0  0  0
    7.9989   -1.0913   23.6395 C   0  0  0  0  0  0  0  0  0  0  0  0
    8.7310   -0.2074   24.6651 C   0  0  0  0  0  0  0  0  0  0  0  0
   10.9030    0.9230   25.7278 H   0  0  0  0  0  0  0  0  0  0  0  0
    9.6723    2.1875   25.7063 H   0  0  0  0  0  0  0  0  0  0  0  0
   11.0909    2.3386   24.6660 H   0  0  0  0  0  0  0  0  0  0  0  0
    9.1488    1.4684   23.3271 H   0  0  0  0  0  0  0  0  0  0  0  0
   11.6052   -0.2461   23.9406 H   0  0  0  0  0  0  0  0  0  0  0  0
   11.1909    0.6014   22.4487 H   0  0  0  0  0  0  0  0  0  0  0  0
   10.7249   -1.5692   21.7268 H   0  0  0  0  0  0  0  0  0  0  0  0
   10.3705   -2.1602   23.3652 H   0  0  0  0  0  0  0  0  0  0  0  0
    7.0928   -2.0600   20.3214 H   0  0  0  0  0  0  0  0  0  0  0  0
    6.3871   -1.1797   21.6689 H   0  0  0  0  0  0  0  0  0  0  0  0
    7.5822   -0.8527   18.2085 H   0  0  0  0  0  0  0  0  0  0  0  0
    4.8677    1.9929   16.9983 H   0  0  0  0  0  0  0  0  0  0  0  0
    3.3142    3.0610   18.6202 H   0  0  0  0  0  0  0  0  0  0  0  0
    2.5223    3.3607   20.9496 H   0  0  0  0  0  0  0  0  0  0  0  0
    3.5436    2.0417   22.7908 H   0  0  0  0  0  0  0  0  0  0  0  0
    5.3176    0.4243   22.3221 H   0  0  0  0  0  0  0  0  0  0  0  0
    7.0262   -0.6621   23.3799 H   0  0  0  0  0  0  0  0  0  0  0  0
    7.8226   -2.0768   24.0811 H   0  0  0  0  0  0  0  0  0  0  0  0
    9.3296   -0.8541   25.3282 H   0  0  0  0  0  0  0  0  0  0  0  0
    8.0082    0.3178   25.3021 H   0  0  0  0  0  0  0  0  0  0  0  0
  1  2  1  0  0  0  0
  1 21  1  0  0  0  0
  1 22  1  0  0  0  0
  1 23  1  0  0  0  0
  2  3  1  0  0  0  0
  2 24  1  0  0  0  0
  3  4  1  0  0  0  0
  3 25  1  0  0  0  0
  3 26  1  0  0  0  0
  4  5  1  0  0  0  0
  4 27  1  0  0  0  0
  4 28  1  0  0  0  0
  5  6  1  0  0  0  0
  5 19  1  0  0  0  0
  6  7  2  0  0  0  0
  6  8  1  0  0  0  0
  8  9  1  0  0  0  0
  8 29  1  0  0  0  0
  8 30  1  0  0  0  0
  9 10  2  0  0  0  0
 10 11  1  0  0  0  0
 10 31  1  0  0  0  0
 11 12  2  0  0  0  0
 12 13  1  0  0  0  0
 12 32  1  0  0  0  0
 13 14  2  0  0  0  0
 14 15  1  0  0  0  0
 14 33  1  0  0  0  0
 15 16  2  0  0  0  0
 15 34  1  0  0  0  0
 16 17  1  0  0  0  0
 16 35  1  0  0  0  0
 17 18  2  0  0  0  0
 17 36  1  0  0  0  0
  9 18  1  0  0  0  0
 13 18  1  0  0  0  0
 19 20  1  0  0  0  0
 19 37  1  0  0  0  0
 19 38  1  0  0  0  0
  2 20  1  0  0  0  0
 20 39  1  0  0  0  0
 20 40  1  0  0  0  0
M  END
$$$$
