obj01
  PyMOL2.5          3D                             0

 66 71  0  0  1  0  0  0  0  0999 V2000
    7.7818   -3.7999   22.9354 C   0  0  0  0  0  0  0  0  0  0  0  0
    7.9947   -2.6675   21.9400 C   0  0  1  0  0  0  0  0  0  0  0  0
    6.7133   -2.1609   21.2583 C   0  0  0  0  0  0  0  0  0  0  0  0
    7.1257   -0.8483   20.7806 N   0  0  0  0  0  0  0  0  0  0  0  0
    6.4379   -0.0705   19.8148 C   0  0  0  0  0  0  0  0  0  0  0  0
    6.8173   -0.1464   18.4992 C   0  0  0  0  0  0  0  0  0  0  0  0
    6.2438    0.5585   17.4902 N   0  0  0  0  0  0  0  0  0  0  0  0
    5.2698    1.3756   17.8116 C   0  0  0  0  0  0  0  0  0  0  0  0
    4.7790    1.5591   19.1371 C   0  0  0  0  0  0  0  0  0  0  0  0
    3.7433    2.4856   19.4324 C   0  0  0  0  0  0  0  0  0  0  0  0
    3.3048    2.6504   20.7156 C   0  0  0  0  0  0  0  0  0  0  0  0
    3.8811    1.9042   21.7662 C   0  0  0  0  0  0  0  0  0  0  0  0
    4.8936    1.0091   21.5110 C   0  0  0  0  0  0  0  0  0  0  0  0
    5.3713    0.8131   20.1843 C   0  0  0  0  0  0  0  0  0  0  0  0
    8.3110   -0.4117   21.3338 C   0  0  0  0  0  0  0  0  0  0  0  0
    8.9366    0.5624   20.9570 O   0  0  0  0  0  0  0  0  0  0  0  0
    8.6677   -1.3696   22.4920 C   0  0  1  0  0  0  0  0  0  0  0  0
    7.9744   -0.9290   23.8149 C   0  0  0  0  0  0  0  0  0  0  0  0
    8.6462    0.1743   24.4786 N   0  0  0  0  0  0  0  0  0  0  0  0
    7.8969    1.3736   24.8384 C   0  0  0  0  0  0  0  0  0  0  0  0
    7.7701    2.3592   23.6696 C   0  0  0  0  0  0  0  0  0  0  0  0
    8.8057    3.4407   23.7100 N   0  3  0  0  0  0  0  0  0  0  0  0
    8.4156    4.6505   22.9067 C   0  0  0  0  0  0  0  0  0  0  0  0
    9.4322    5.7683   23.0971 C   0  0  0  0  0  0  0  0  0  0  0  0
   10.7461    5.3873   22.7448 O   0  0  0  0  0  0  0  0  0  0  0  0
   11.1619    4.1811   23.3497 C   0  0  0  0  0  0  0  0  0  0  0  0
   10.1729    3.0264   23.2127 C   0  0  0  0  0  0  0  0  0  0  0  0
    9.9934    0.1310   24.7009 C   0  0  0  0  0  0  0  0  0  0  0  0
   10.5653    0.8282   25.5300 O   0  0  0  0  0  0  0  0  0  0  0  0
   10.7806   -0.7543   23.7702 C   0  0  0  0  0  0  0  0  0  0  0  0
   12.1676   -0.7891   23.9294 C   0  0  0  0  0  0  0  0  0  0  0  0
   12.9698   -1.4431   23.0125 C   0  0  0  0  0  0  0  0  0  0  0  0
   12.3559   -2.0742   21.9280 C   0  0  0  0  0  0  0  0  0  0  0  0
   13.3483   -2.8547   20.7246 Cl  0  0  0  0  0  0  0  0  0  0  0  0
   10.9821   -2.0673   21.7652 C   0  0  0  0  0  0  0  0  0  0  0  0
   10.1616   -1.4252   22.7052 C   0  0  0  0  0  0  0  0  0  0  0  0
    7.4244   -4.7011   22.4249 H   0  0  0  0  0  0  0  0  0  0  0  0
    8.7193   -4.0417   23.4494 H   0  0  0  0  0  0  0  0  0  0  0  0
    7.0375   -3.5324   23.6963 H   0  0  0  0  0  0  0  0  0  0  0  0
    8.6231   -3.0423   21.1224 H   0  0  0  0  0  0  0  0  0  0  0  0
    5.8738   -2.1025   21.9706 H   0  0  0  0  0  0  0  0  0  0  0  0
    6.3957   -2.8085   20.4337 H   0  0  0  0  0  0  0  0  0  0  0  0
    7.6338   -0.8072   18.2157 H   0  0  0  0  0  0  0  0  0  0  0  0
    4.8228    1.9569   17.0026 H   0  0  0  0  0  0  0  0  0  0  0  0
    3.3211    3.0671   18.6166 H   0  0  0  0  0  0  0  0  0  0  0  0
    2.5156    3.3638   20.9399 H   0  0  0  0  0  0  0  0  0  0  0  0
    3.5286    2.0483   22.7822 H   0  0  0  0  0  0  0  0  0  0  0  0
    5.3371    0.4547   22.3338 H   0  0  0  0  0  0  0  0  0  0  0  0
    7.9461   -1.7910   24.4958 H   0  0  0  0  0  0  0  0  0  0  0  0
    6.9431   -0.6198   23.6189 H   0  0  0  0  0  0  0  0  0  0  0  0
    6.9122    1.0743   25.2123 H   0  0  0  0  0  0  0  0  0  0  0  0
    8.4177    1.8538   25.6656 H   0  0  0  0  0  0  0  0  0  0  0  0
    7.8557    1.8204   22.7224 H   0  0  0  0  0  0  0  0  0  0  0  0
    6.7974    2.8580   23.6741 H   0  0  0  0  0  0  0  0  0  0  0  0
    8.9057    3.7362   24.7050 H   0  0  0  0  0  0  0  0  0  0  0  0
    7.4247    4.9938   23.2081 H   0  0  0  0  0  0  0  0  0  0  0  0
    8.3564    4.3586   21.8526 H   0  0  0  0  0  0  0  0  0  0  0  0
    9.3845    6.1111   24.1482 H   0  0  0  0  0  0  0  0  0  0  0  0
    9.1717    6.5944   22.4299 H   0  0  0  0  0  0  0  0  0  0  0  0
   11.3834    4.3265   24.4232 H   0  0  0  0  0  0  0  0  0  0  0  0
   12.0972    3.8979   22.8603 H   0  0  0  0  0  0  0  0  0  0  0  0
   10.5491    2.2041   23.8079 H   0  0  0  0  0  0  0  0  0  0  0  0
   10.0851    2.6672   22.1820 H   0  0  0  0  0  0  0  0  0  0  0  0
   12.6021   -0.2715   24.7793 H   0  0  0  0  0  0  0  0  0  0  0  0
   14.0515   -1.4570   23.1211 H   0  0  0  0  0  0  0  0  0  0  0  0
   10.5577   -2.5588   20.8944 H   0  0  0  0  0  0  0  0  0  0  0  0
  1  2  1  0  0  0  0
  1 37  1  0  0  0  0
  1 38  1  0  0  0  0
  1 39  1  0  0  0  0
  2  3  1  0  0  0  0
  2 40  1  0  0  0  0
  3  4  1  0  0  0  0
  3 41  1  0  0  0  0
  3 42  1  0  0  0  0
  4  5  1  0  0  0  0
  4 15  1  0  0  0  0
  5  6  2  0  0  0  0
  6  7  1  0  0  0  0
  6 43  1  0  0  0  0
  7  8  2  0  0  0  0
  8  9  1  0  0  0  0
  8 44  1  0  0  0  0
  9 10  2  0  0  0  0
 10 11  1  0  0  0  0
 10 45  1  0  0  0  0
 11 12  2  0  0  0  0
 11 46  1  0  0  0  0
 12 13  1  0  0  0  0
 12 47  1  0  0  0  0
 13 14  2  0  0  0  0
 13 48  1  0  0  0  0
  5 14  1  0  0  0  0
  9 14  1  0  0  0  0
 15 16  2  0  0  0  0
 15 17  1  0  0  0  0
  2 17  1  0  0  0  0
 17 18  1  0  0  0  0
 18 19  1  0  0  0  0
 18 49  1  0  0  0  0
 18 50  1  0  0  0  0
 19 20  1  0  0  0  0
 19 28  1  0  0  0  0
 20 21  1  0  0  0  0
 20 51  1  0  0  0  0
 20 52  1  0  0  0  0
 21 22  1  0  0  0  0
 21 53  1  0  0  0  0
 21 54  1  0  0  0  0
 22 23  1  0  0  0  0
 22 55  1  0  0  0  0
 23 24  1  0  0  0  0
 23 56  1  0  0  0  0
 23 57  1  0  0  0  0
 24 25  1  0  0  0  0
 24 58  1  0  0  0  0
 24 59  1  0  0  0  0
 25 26  1  0  0  0  0
 26 27  1  0  0  0  0
 26 60  1  0  0  0  0
 26 61  1  0  0  0  0
 22 27  1  0  0  0  0
 27 62  1  0  0  0  0
 27 63  1  0  0  0  0
 28 29  2  0  0  0  0
 28 30  1  0  0  0  0
 30 31  2  0  0  0  0
 31 32  1  0  0  0  0
 31 64  1  0  0  0  0
 32 33  2  0  0  0  0
 32 65  1  0  0  0  0
 33 34  1  0  0  0  0
 33 35  1  0  0  0  0
 35 36  2  0  0  0  0
 35 66  1  0  0  0  0
 17 36  1  0  0  0  0
 30 36  1  0  0  0  0
M  END
$$$$
