obj01
  PyMOL2.5          3D                             0

 67 71  0  0  1  0  0  0  0  0999 V2000
    6.9723    3.8231   22.9179 C   0  0  0  0  0  0  0  0  0  0  0  0
    7.5786    2.6734   23.5603 N   0  0  0  0  0  0  0  0  0  0  0  0
    7.1301    2.2778   24.7717 C   0  0  0  0  0  0  0  0  0  0  0  0
    6.3027    2.9069   25.4195 O   0  0  0  0  0  0  0  0  0  0  0  0
    7.6988    0.9793   25.3588 C   0  0  0  0  0  0  0  0  0  0  0  0
    8.5160    0.1757   24.4771 N   0  0  0  0  0  0  0  0  0  0  0  0
    7.9589   -1.0500   23.9345 C   0  0  0  0  0  0  0  0  0  0  0  0
    8.5812   -1.4068   22.5612 C   0  0  2  0  0  0  0  0  0  0  0  0
    8.1729   -0.3330   21.5206 C   0  0  0  0  0  0  0  0  0  0  0  0
    8.6577    0.7706   21.3616 O   0  0  0  0  0  0  0  0  0  0  0  0
    7.1167   -0.8271   20.7901 N   0  0  0  0  0  0  0  0  0  0  0  0
    6.4480   -0.0477   19.8148 C   0  0  0  0  0  0  0  0  0  0  0  0
    6.8105   -0.1528   18.4983 C   0  0  0  0  0  0  0  0  0  0  0  0
    6.2414    0.5494   17.4851 N   0  0  0  0  0  0  0  0  0  0  0  0
    5.2764    1.3799   17.8073 C   0  0  0  0  0  0  0  0  0  0  0  0
    4.7968    1.5795   19.1351 C   0  0  0  0  0  0  0  0  0  0  0  0
    3.7511    2.4938   19.4323 C   0  0  0  0  0  0  0  0  0  0  0  0
    3.3052    2.6454   20.7162 C   0  0  0  0  0  0  0  0  0  0  0  0
    3.8767    1.8928   21.7674 C   0  0  0  0  0  0  0  0  0  0  0  0
    4.8970    1.0112   21.5087 C   0  0  0  0  0  0  0  0  0  0  0  0
    5.3901    0.8377   20.1827 C   0  0  0  0  0  0  0  0  0  0  0  0
    6.6805   -2.1442   21.1901 C   0  0  0  0  0  0  0  0  0  0  0  0
    7.9073   -2.6720   21.9561 C   0  0  2  0  0  0  0  0  0  0  0  0
    7.5316   -3.7855   22.9319 C   0  0  0  0  0  0  0  0  0  0  0  0
    6.6473   -5.0859   22.0683 S   0  0  0  0  0  0  0  0  0  0  0  0
    7.2555   -5.3172   20.7669 O   0  0  0  0  0  0  0  0  0  0  0  0
    5.2204   -4.7868   22.1383 O   0  0  0  0  0  0  0  0  0  0  0  0
    7.0075   -6.3644   23.0994 N   0  0  0  0  0  0  0  0  0  0  0  0
    6.1912   -6.3890   24.3151 C   0  0  0  0  0  0  0  0  0  0  0  0
    7.1366   -7.6636   22.4446 C   0  0  0  0  0  0  0  0  0  0  0  0
   10.0875   -1.4371   22.7464 C   0  0  0  0  0  0  0  0  0  0  0  0
   10.9347   -2.3004   22.0400 C   0  0  0  0  0  0  0  0  0  0  0  0
   12.3032   -2.1719   22.1767 C   0  0  0  0  0  0  0  0  0  0  0  0
   13.1034   -3.0020   21.4866 F   0  0  0  0  0  0  0  0  0  0  0  0
   12.8966   -1.2130   22.9881 C   0  0  0  0  0  0  0  0  0  0  0  0
   12.0678   -0.3690   23.6958 C   0  0  0  0  0  0  0  0  0  0  0  0
   10.6826   -0.4866   23.5938 C   0  0  0  0  0  0  0  0  0  0  0  0
    9.8589    0.4377   24.4349 C   0  0  0  0  0  0  0  0  0  0  0  0
   10.3554    1.3802   25.0392 O   0  0  0  0  0  0  0  0  0  0  0  0
    5.9092    3.6389   22.7155 H   0  0  0  0  0  0  0  0  0  0  0  0
    7.0558    4.7178   23.5441 H   0  0  0  0  0  0  0  0  0  0  0  0
    7.4882    3.9999   21.9710 H   0  0  0  0  0  0  0  0  0  0  0  0
    8.1913    2.0845   23.0065 H   0  0  0  0  0  0  0  0  0  0  0  0
    8.2805    1.2448   26.2492 H   0  0  0  0  0  0  0  0  0  0  0  0
    6.8387    0.3900   25.6956 H   0  0  0  0  0  0  0  0  0  0  0  0
    6.8746   -0.9128   23.8285 H   0  0  0  0  0  0  0  0  0  0  0  0
    8.1412   -1.8807   24.6317 H   0  0  0  0  0  0  0  0  0  0  0  0
    7.6136   -0.8340   18.2216 H   0  0  0  0  0  0  0  0  0  0  0  0
    4.8159    1.9482   16.9980 H   0  0  0  0  0  0  0  0  0  0  0  0
    3.3205    3.0701   18.6177 H   0  0  0  0  0  0  0  0  0  0  0  0
    2.5103    3.3493   20.9434 H   0  0  0  0  0  0  0  0  0  0  0  0
    3.5268    2.0360   22.7879 H   0  0  0  0  0  0  0  0  0  0  0  0
    5.3297    0.4421   22.3270 H   0  0  0  0  0  0  0  0  0  0  0  0
    5.7727   -2.0966   21.8171 H   0  0  0  0  0  0  0  0  0  0  0  0
    6.4420   -2.7623   20.3237 H   0  0  0  0  0  0  0  0  0  0  0  0
    8.5873   -3.0984   21.2113 H   0  0  0  0  0  0  0  0  0  0  0  0
    6.8291   -3.4318   23.6984 H   0  0  0  0  0  0  0  0  0  0  0  0
    8.4088   -4.2440   23.4051 H   0  0  0  0  0  0  0  0  0  0  0  0
    6.4649   -5.5691   24.9959 H   0  0  0  0  0  0  0  0  0  0  0  0
    6.4103   -7.3358   24.8206 H   0  0  0  0  0  0  0  0  0  0  0  0
    5.1198   -6.3205   24.0772 H   0  0  0  0  0  0  0  0  0  0  0  0
    7.7624   -7.5546   21.5601 H   0  0  0  0  0  0  0  0  0  0  0  0
    6.1613   -8.0868   22.1677 H   0  0  0  0  0  0  0  0  0  0  0  0
    7.6401   -8.3402   23.1397 H   0  0  0  0  0  0  0  0  0  0  0  0
   10.5649   -3.0735   21.3755 H   0  0  0  0  0  0  0  0  0  0  0  0
   13.9766   -1.1443   23.0519 H   0  0  0  0  0  0  0  0  0  0  0  0
   12.4680    0.4018   24.3445 H   0  0  0  0  0  0  0  0  0  0  0  0
  1  2  1  0  0  0  0
  1 40  1  0  0  0  0
  1 41  1  0  0  0  0
  1 42  1  0  0  0  0
  2  3  1  0  0  0  0
  2 43  1  0  0  0  0
  3  4  2  0  0  0  0
  3  5  1  0  0  0  0
  5  6  1  0  0  0  0
  5 44  1  0  0  0  0
  5 45  1  0  0  0  0
  6  7  1  0  0  0  0
  7 46  1  0  0  0  0
  7 47  1  0  0  0  0
  7  8  1  0  0  0  0
  8  9  1  0  0  0  0
  8 31  1  0  0  0  0
  9 10  2  0  0  0  0
  9 11  1  0  0  0  0
 11 12  1  0  0  0  0
 11 22  1  0  0  0  0
 12 13  2  0  0  0  0
 13 14  1  0  0  0  0
 13 48  1  0  0  0  0
 14 15  2  0  0  0  0
 15 16  1  0  0  0  0
 15 49  1  0  0  0  0
 16 17  2  0  0  0  0
 17 18  1  0  0  0  0
 17 50  1  0  0  0  0
 18 19  2  0  0  0  0
 18 51  1  0  0  0  0
 19 20  1  0  0  0  0
 19 52  1  0  0  0  0
 20 21  2  0  0  0  0
 20 53  1  0  0  0  0
 12 21  1  0  0  0  0
 16 21  1  0  0  0  0
 22 23  1  0  0  0  0
 22 54  1  0  0  0  0
 22 55  1  0  0  0  0
  8 23  1  0  0  0  0
 23 24  1  0  0  0  0
 23 56  1  0  0  0  0
 24 25  1  0  0  0  0
 24 57  1  0  0  0  0
 24 58  1  0  0  0  0
 25 26  2  0  0  0  0
 25 27  2  0  0  0  0
 25 28  1  0  0  0  0
 28 29  1  0  0  0  0
 28 30  1  0  0  0  0
 29 59  1  0  0  0  0
 29 60  1  0  0  0  0
 29 61  1  0  0  0  0
 30 62  1  0  0  0  0
 30 63  1  0  0  0  0
 30 64  1  0  0  0  0
 31 32  2  0  0  0  0
 32 33  1  0  0  0  0
 32 65  1  0  0  0  0
 33 34  1  0  0  0  0
 33 35  2  0  0  0  0
 35 36  1  0  0  0  0
 35 66  1  0  0  0  0
 36 37  2  0  0  0  0
 36 67  1  0  0  0  0
 31 37  1  0  0  0  0
 37 38  1  0  0  0  0
  6 38  1  0  0  0  0
 38 39  2  0  0  0  0
M  END
$$$$
