obj01
  PyMOL2.5          3D                             0

 55 60  0  0  1  0  0  0  0  0999 V2000
    7.6860   -3.8083   22.9351 C   0  0  0  0  0  0  0  0  0  0  0  0
    7.9596   -2.6660   21.9687 C   0  0  1  0  0  0  0  0  0  0  0  0
    6.7229   -2.1467   21.2274 C   0  0  0  0  0  0  0  0  0  0  0  0
    7.1357   -0.8210   20.8054 N   0  0  0  0  0  0  0  0  0  0  0  0
    6.4581   -0.0443   19.8303 C   0  0  0  0  0  0  0  0  0  0  0  0
    6.8083   -0.1578   18.5087 C   0  0  0  0  0  0  0  0  0  0  0  0
    6.2377    0.5393   17.4947 N   0  0  0  0  0  0  0  0  0  0  0  0
    5.2741    1.3790   17.8032 C   0  0  0  0  0  0  0  0  0  0  0  0
    4.7872    1.5756   19.1287 C   0  0  0  0  0  0  0  0  0  0  0  0
    3.7445    2.4994   19.4282 C   0  0  0  0  0  0  0  0  0  0  0  0
    3.3072    2.6549   20.7166 C   0  0  0  0  0  0  0  0  0  0  0  0
    3.8760    1.8917   21.7631 C   0  0  0  0  0  0  0  0  0  0  0  0
    4.8953    1.0095   21.5053 C   0  0  0  0  0  0  0  0  0  0  0  0
    5.3812    0.8339   20.1798 C   0  0  0  0  0  0  0  0  0  0  0  0
    8.1992   -0.3220   21.5281 C   0  0  0  0  0  0  0  0  0  0  0  0
    8.6900    0.7714   21.3530 O   0  0  0  0  0  0  0  0  0  0  0  0
    8.6027   -1.3899   22.5797 C   0  0  1  0  0  0  0  0  0  0  0  0
    7.9688   -1.0255   23.9489 C   0  0  0  0  0  0  0  0  0  0  0  0
    8.5097    0.2042   24.5003 N   0  0  0  0  0  0  0  0  0  0  0  0
    7.6509    1.0022   25.3540 C   0  0  0  0  0  0  0  0  0  0  0  0
    7.0149    2.1488   24.6423 C   0  0  0  0  0  0  0  0  0  0  0  0
    7.5904    2.9284   23.7039 C   0  0  0  0  0  0  0  0  0  0  0  0
    6.6902    3.8951   23.3624 O   0  0  0  0  0  0  0  0  0  0  0  0
    5.6082    3.6286   24.1177 C   0  0  0  0  0  0  0  0  0  0  0  0
    5.7253    2.5987   24.8899 N   0  0  0  0  0  0  0  0  0  0  0  0
    9.8372    0.5182   24.4130 C   0  0  0  0  0  0  0  0  0  0  0  0
   10.3077    1.5097   24.9565 O   0  0  0  0  0  0  0  0  0  0  0  0
   10.6856   -0.4397   23.6167 C   0  0  0  0  0  0  0  0  0  0  0  0
   12.0754   -0.3322   23.7199 C   0  0  0  0  0  0  0  0  0  0  0  0
   12.9052   -1.1778   23.0099 C   0  0  0  0  0  0  0  0  0  0  0  0
   12.3115   -2.1412   22.2027 C   0  0  0  0  0  0  0  0  0  0  0  0
   13.0982   -2.9676   21.4946 F   0  0  0  0  0  0  0  0  0  0  0  0
   10.9435   -2.2770   22.0758 C   0  0  0  0  0  0  0  0  0  0  0  0
   10.1036   -1.4094   22.7810 C   0  0  0  0  0  0  0  0  0  0  0  0
    6.9090   -3.5402   23.6546 H   0  0  0  0  0  0  0  0  0  0  0  0
    7.3503   -4.7058   22.4089 H   0  0  0  0  0  0  0  0  0  0  0  0
    8.5769   -4.0748   23.5124 H   0  0  0  0  0  0  0  0  0  0  0  0
    8.6332   -3.0369   21.1921 H   0  0  0  0  0  0  0  0  0  0  0  0
    6.4688   -2.7631   20.3630 H   0  0  0  0  0  0  0  0  0  0  0  0
    5.8479   -2.1377   21.9000 H   0  0  0  0  0  0  0  0  0  0  0  0
    7.6099   -0.8333   18.2179 H   0  0  0  0  0  0  0  0  0  0  0  0
    4.8216    1.9491   16.9886 H   0  0  0  0  0  0  0  0  0  0  0  0
    3.3089    3.0870   18.6223 H   0  0  0  0  0  0  0  0  0  0  0  0
    2.5154    3.3640   20.9474 H   0  0  0  0  0  0  0  0  0  0  0  0
    3.5228    2.0153   22.7841 H   0  0  0  0  0  0  0  0  0  0  0  0
    5.3428    0.4316   22.3095 H   0  0  0  0  0  0  0  0  0  0  0  0
    8.1422   -1.8389   24.6668 H   0  0  0  0  0  0  0  0  0  0  0  0
    6.8874   -0.8981   23.8323 H   0  0  0  0  0  0  0  0  0  0  0  0
    8.2526    1.3760   26.1887 H   0  0  0  0  0  0  0  0  0  0  0  0
    6.8677    0.3623   25.7681 H   0  0  0  0  0  0  0  0  0  0  0  0
    8.5596    2.9421   23.2295 H   0  0  0  0  0  0  0  0  0  0  0  0
    4.7452    4.2761   24.0034 H   0  0  0  0  0  0  0  0  0  0  0  0
   12.4965    0.4260   24.3692 H   0  0  0  0  0  0  0  0  0  0  0  0
   13.9893   -1.1026   23.0585 H   0  0  0  0  0  0  0  0  0  0  0  0
   10.5557   -3.0596   21.4318 H   0  0  0  0  0  0  0  0  0  0  0  0
  1  2  1  0  0  0  0
  1 35  1  0  0  0  0
  1 36  1  0  0  0  0
  1 37  1  0  0  0  0
  2  3  1  0  0  0  0
  2 38  1  0  0  0  0
  3  4  1  0  0  0  0
  3 39  1  0  0  0  0
  3 40  1  0  0  0  0
  4  5  1  0  0  0  0
  4 15  1  0  0  0  0
  5  6  2  0  0  0  0
  6  7  1  0  0  0  0
  6 41  1  0  0  0  0
  7  8  2  0  0  0  0
  8  9  1  0  0  0  0
  8 42  1  0  0  0  0
  9 10  2  0  0  0  0
 10 11  1  0  0  0  0
 10 43  1  0  0  0  0
 11 12  2  0  0  0  0
 11 44  1  0  0  0  0
 12 13  1  0  0  0  0
 12 45  1  0  0  0  0
 13 14  2  0  0  0  0
 13 46  1  0  0  0  0
  5 14  1  0  0  0  0
  9 14  1  0  0  0  0
 15 16  2  0  0  0  0
 15 17  1  0  0  0  0
  2 17  1  0  0  0  0
 17 18  1  0  0  0  0
 18 19  1  0  0  0  0
 18 47  1  0  0  0  0
 18 48  1  0  0  0  0
 19 20  1  0  0  0  0
 19 26  1  0  0  0  0
 20 21  1  0  0  0  0
 20 49  1  0  0  0  0
 20 50  1  0  0  0  0
 21 22  2  0  0  0  0
 22 23  1  0  0  0  0
 22 51  1  0  0  0  0
 23 24  1  0  0  0  0
 24 25  2  0  0  0  0
 24 52  1  0  0  0  0
 21 25  1  0  0  0  0
 26 27  2  0  0  0  0
 26 28  1  0  0  0  0
 28 29  2  0  0  0  0
 29 30  1  0  0  0  0
 29 53  1  0  0  0  0
 30 31  2  0  0  0  0
 30 54  1  0  0  0  0
 31 32  1  0  0  0  0
 31 33  1  0  0  0  0
 33 34  2  0  0  0  0
 33 55  1  0  0  0  0
 17 34  1  0  0  0  0
 28 34  1  0  0  0  0
M  END
$$$$
