obj01
  PyMOL2.5          3D                             0

 66 71  0  0  1  0  0  0  0  0999 V2000
    6.9619    3.8613   22.9268 C   0  0  0  0  0  0  0  0  0  0  0  0
    7.5757    2.7247   23.5879 N   0  0  0  0  0  0  0  0  0  0  0  0
    7.1211    2.3128   24.7904 C   0  0  0  0  0  0  0  0  0  0  0  0
    6.2890    2.9307   25.4400 O   0  0  0  0  0  0  0  0  0  0  0  0
    7.6802    0.9937   25.3517 C   0  0  0  0  0  0  0  0  0  0  0  0
    8.5072    0.1911   24.4777 N   0  0  0  0  0  0  0  0  0  0  0  0
    7.9604   -1.0427   23.9464 C   0  0  0  0  0  0  0  0  0  0  0  0
    8.5996   -1.4079   22.5887 C   0  0  2  0  0  0  0  0  0  0  0  0
    8.1890   -0.3471   21.5245 C   0  0  0  0  0  0  0  0  0  0  0  0
    8.6697    0.7560   21.3489 O   0  0  0  0  0  0  0  0  0  0  0  0
    7.1351   -0.8504   20.7959 N   0  0  0  0  0  0  0  0  0  0  0  0
    6.4595   -0.0554   19.8263 C   0  0  0  0  0  0  0  0  0  0  0  0
    6.8132   -0.1475   18.5056 C   0  0  0  0  0  0  0  0  0  0  0  0
    6.2344    0.5506   17.4926 N   0  0  0  0  0  0  0  0  0  0  0  0
    5.2689    1.3802   17.8096 C   0  0  0  0  0  0  0  0  0  0  0  0
    4.7935    1.5821   19.1392 C   0  0  0  0  0  0  0  0  0  0  0  0
    3.7427    2.4939   19.4326 C   0  0  0  0  0  0  0  0  0  0  0  0
    3.2930    2.6471   20.7174 C   0  0  0  0  0  0  0  0  0  0  0  0
    3.8697    1.8924   21.7641 C   0  0  0  0  0  0  0  0  0  0  0  0
    4.8949    1.0136   21.5041 C   0  0  0  0  0  0  0  0  0  0  0  0
    5.3972    0.8405   20.1846 C   0  0  0  0  0  0  0  0  0  0  0  0
    6.7202   -2.1760   21.2168 C   0  0  0  0  0  0  0  0  0  0  0  0
    7.9531   -2.6924   21.9889 C   0  0  2  0  0  0  0  0  0  0  0  0
    7.5760   -3.8345   22.9469 C   0  0  0  0  0  0  0  0  0  0  0  0
    8.6977   -4.3827   23.6831 N   0  0  0  0  0  0  0  0  0  0  0  0
    8.5554   -5.3840   24.6066 C   0  0  0  0  0  0  0  0  0  0  0  0
    7.3064   -5.9593   24.9549 C   0  0  0  0  0  0  0  0  0  0  0  0
    7.1935   -6.8621   25.9177 N   0  0  0  0  0  0  0  0  0  0  0  0
    8.3135   -7.2329   26.5474 C   0  0  0  0  0  0  0  0  0  0  0  0
    9.5431   -6.7276   26.1614 C   0  0  0  0  0  0  0  0  0  0  0  0
    9.6709   -5.8137   25.1973 N   0  0  0  0  0  0  0  0  0  0  0  0
   10.1036   -1.4198   22.7719 C   0  0  0  0  0  0  0  0  0  0  0  0
   10.9465   -2.2787   22.0567 C   0  0  0  0  0  0  0  0  0  0  0  0
   12.3230   -2.1499   22.1595 C   0  0  0  0  0  0  0  0  0  0  0  0
   13.3593   -3.1996   21.2307 Cl  0  0  0  0  0  0  0  0  0  0  0  0
   12.9022   -1.1859   22.9848 C   0  0  0  0  0  0  0  0  0  0  0  0
   12.0744   -0.3482   23.7070 C   0  0  0  0  0  0  0  0  0  0  0  0
   10.6899   -0.4625   23.6125 C   0  0  0  0  0  0  0  0  0  0  0  0
    9.8445    0.4779   24.4240 C   0  0  0  0  0  0  0  0  0  0  0  0
   10.3058    1.4627   24.9887 O   0  0  0  0  0  0  0  0  0  0  0  0
    7.0425    4.7682   23.5366 H   0  0  0  0  0  0  0  0  0  0  0  0
    7.4793    4.0077   21.9753 H   0  0  0  0  0  0  0  0  0  0  0  0
    5.8978    3.6706   22.7320 H   0  0  0  0  0  0  0  0  0  0  0  0
    8.2975    2.2102   23.1011 H   0  0  0  0  0  0  0  0  0  0  0  0
    8.2425    1.2429   26.2582 H   0  0  0  0  0  0  0  0  0  0  0  0
    6.8025    0.4107   25.6451 H   0  0  0  0  0  0  0  0  0  0  0  0
    6.8823   -0.9018   23.8128 H   0  0  0  0  0  0  0  0  0  0  0  0
    8.1258   -1.8736   24.6455 H   0  0  0  0  0  0  0  0  0  0  0  0
    7.6098   -0.8277   18.2125 H   0  0  0  0  0  0  0  0  0  0  0  0
    4.8217    1.9440   16.9891 H   0  0  0  0  0  0  0  0  0  0  0  0
    3.3226    3.0710   18.6125 H   0  0  0  0  0  0  0  0  0  0  0  0
    2.5079    3.3636   20.9475 H   0  0  0  0  0  0  0  0  0  0  0  0
    3.5282    2.0379   22.7877 H   0  0  0  0  0  0  0  0  0  0  0  0
    5.3343    0.4382   22.3124 H   0  0  0  0  0  0  0  0  0  0  0  0
    5.8321   -2.1322   21.8700 H   0  0  0  0  0  0  0  0  0  0  0  0
    6.4468   -2.7778   20.3455 H   0  0  0  0  0  0  0  0  0  0  0  0
    8.6730   -3.0692   21.2550 H   0  0  0  0  0  0  0  0  0  0  0  0
    7.1070   -4.6533   22.3740 H   0  0  0  0  0  0  0  0  0  0  0  0
    6.8096   -3.4821   23.6655 H   0  0  0  0  0  0  0  0  0  0  0  0
    9.6593   -4.0765   23.5768 H   0  0  0  0  0  0  0  0  0  0  0  0
    6.3876   -5.6673   24.4503 H   0  0  0  0  0  0  0  0  0  0  0  0
    8.2080   -7.9284   27.3760 H   0  0  0  0  0  0  0  0  0  0  0  0
   10.4567   -7.0504   26.6646 H   0  0  0  0  0  0  0  0  0  0  0  0
   10.5405   -3.0405   21.4017 H   0  0  0  0  0  0  0  0  0  0  0  0
   13.9801   -1.0995   23.0511 H   0  0  0  0  0  0  0  0  0  0  0  0
   12.4546    0.4295   24.3586 H   0  0  0  0  0  0  0  0  0  0  0  0
  1  2  1  0  0  0  0
  1 41  1  0  0  0  0
  1 42  1  0  0  0  0
  1 43  1  0  0  0  0
  2  3  1  0  0  0  0
  2 44  1  0  0  0  0
  3  4  2  0  0  0  0
  3  5  1  0  0  0  0
  5  6  1  0  0  0  0
  5 45  1  0  0  0  0
  5 46  1  0  0  0  0
  6  7  1  0  0  0  0
  7 47  1  0  0  0  0
  7 48  1  0  0  0  0
  7  8  1  0  0  0  0
  8  9  1  0  0  0  0
  8 32  1  0  0  0  0
  9 10  2  0  0  0  0
  9 11  1  0  0  0  0
 11 12  1  0  0  0  0
 11 22  1  0  0  0  0
 12 13  2  0  0  0  0
 13 14  1  0  0  0  0
 13 49  1  0  0  0  0
 14 15  2  0  0  0  0
 15 16  1  0  0  0  0
 15 50  1  0  0  0  0
 16 17  2  0  0  0  0
 17 18  1  0  0  0  0
 17 51  1  0  0  0  0
 18 19  2  0  0  0  0
 18 52  1  0  0  0  0
 19 20  1  0  0  0  0
 19 53  1  0  0  0  0
 20 21  2  0  0  0  0
 20 54  1  0  0  0  0
 12 21  1  0  0  0  0
 16 21  1  0  0  0  0
 22 23  1  0  0  0  0
 22 55  1  0  0  0  0
 22 56  1  0  0  0  0
  8 23  1  0  0  0  0
 23 24  1  0  0  0  0
 23 57  1  0  0  0  0
 24 25  1  0  0  0  0
 24 58  1  0  0  0  0
 24 59  1  0  0  0  0
 25 26  1  0  0  0  0
 25 60  1  0  0  0  0
 26 27  2  0  0  0  0
 27 28  1  0  0  0  0
 27 61  1  0  0  0  0
 28 29  2  0  0  0  0
 29 30  1  0  0  0  0
 29 62  1  0  0  0  0
 30 31  2  0  0  0  0
 30 63  1  0  0  0  0
 26 31  1  0  0  0  0
 32 33  2  0  0  0  0
 33 34  1  0  0  0  0
 33 64  1  0  0  0  0
 34 35  1  0  0  0  0
 34 36  2  0  0  0  0
 36 37  1  0  0  0  0
 36 65  1  0  0  0  0
 37 38  2  0  0  0  0
 37 66  1  0  0  0  0
 32 38  1  0  0  0  0
 38 39  1  0  0  0  0
  6 39  1  0  0  0  0
 39 40  2  0  0  0  0
M  END
$$$$
