obj01
  PyMOL2.5          3D                             0

 59 64  0  0  1  0  0  0  0  0999 V2000
    7.6911   -3.8062   22.9371 C   0  0  0  0  0  0  0  0  0  0  0  0
    7.9654   -2.6608   21.9709 C   0  0  1  0  0  0  0  0  0  0  0  0
    6.7242   -2.1476   21.2288 C   0  0  0  0  0  0  0  0  0  0  0  0
    7.1325   -0.8218   20.8065 N   0  0  0  0  0  0  0  0  0  0  0  0
    6.4570   -0.0445   19.8281 C   0  0  0  0  0  0  0  0  0  0  0  0
    6.8118   -0.1544   18.5085 C   0  0  0  0  0  0  0  0  0  0  0  0
    6.2383    0.5419   17.4939 N   0  0  0  0  0  0  0  0  0  0  0  0
    5.2750    1.3783   17.8048 C   0  0  0  0  0  0  0  0  0  0  0  0
    4.7858    1.5771   19.1288 C   0  0  0  0  0  0  0  0  0  0  0  0
    3.7428    2.4987   19.4307 C   0  0  0  0  0  0  0  0  0  0  0  0
    3.3071    2.6538   20.7175 C   0  0  0  0  0  0  0  0  0  0  0  0
    3.8752    1.8905   21.7638 C   0  0  0  0  0  0  0  0  0  0  0  0
    4.8816    0.9933   21.4978 C   0  0  0  0  0  0  0  0  0  0  0  0
    5.3787    0.8318   20.1781 C   0  0  0  0  0  0  0  0  0  0  0  0
    8.2082   -0.3236   21.5157 C   0  0  0  0  0  0  0  0  0  0  0  0
    8.7192    0.7501   21.3021 O   0  0  0  0  0  0  0  0  0  0  0  0
    8.6059   -1.3833   22.5795 C   0  0  1  0  0  0  0  0  0  0  0  0
    7.9696   -1.0240   23.9512 C   0  0  0  0  0  0  0  0  0  0  0  0
    8.5044    0.2108   24.4922 N   0  0  0  0  0  0  0  0  0  0  0  0
    7.6675    1.0217   25.3582 C   0  0  0  0  0  0  0  0  0  0  0  0
    7.2126    2.2955   24.6980 C   0  0  0  0  0  0  0  0  0  0  0  0
    7.1850    2.4836   23.3986 N   0  0  0  0  0  0  0  0  0  0  0  0
    6.6603    3.7374   23.2225 C   0  0  0  0  0  0  0  0  0  0  0  0
    6.3539    4.3020   24.4336 C   0  0  0  0  0  0  0  0  0  0  0  0
    6.7066    3.3634   25.3802 N   0  0  0  0  0  0  0  0  0  0  0  0
    6.5899    3.4895   26.8170 C   0  0  0  0  0  0  0  0  0  0  0  0
    9.8353    0.5193   24.4144 C   0  0  0  0  0  0  0  0  0  0  0  0
   10.3015    1.5004   24.9730 O   0  0  0  0  0  0  0  0  0  0  0  0
   10.6857   -0.4334   23.6172 C   0  0  0  0  0  0  0  0  0  0  0  0
   12.0748   -0.3236   23.7209 C   0  0  0  0  0  0  0  0  0  0  0  0
   12.9082   -1.1689   23.0121 C   0  0  0  0  0  0  0  0  0  0  0  0
   12.3159   -2.1346   22.2030 C   0  0  0  0  0  0  0  0  0  0  0  0
   13.1066   -2.9603   21.4957 F   0  0  0  0  0  0  0  0  0  0  0  0
   10.9479   -2.2707   22.0777 C   0  0  0  0  0  0  0  0  0  0  0  0
   10.1054   -1.4041   22.7827 C   0  0  0  0  0  0  0  0  0  0  0  0
    7.3561   -4.7052   22.4096 H   0  0  0  0  0  0  0  0  0  0  0  0
    8.5842   -4.0702   23.5131 H   0  0  0  0  0  0  0  0  0  0  0  0
    6.9129   -3.5375   23.6585 H   0  0  0  0  0  0  0  0  0  0  0  0
    8.6419   -3.0271   21.1946 H   0  0  0  0  0  0  0  0  0  0  0  0
    5.8478   -2.1353   21.9006 H   0  0  0  0  0  0  0  0  0  0  0  0
    6.4673   -2.7632   20.3628 H   0  0  0  0  0  0  0  0  0  0  0  0
    7.6134   -0.8307   18.2195 H   0  0  0  0  0  0  0  0  0  0  0  0
    4.8235    1.9472   16.9892 H   0  0  0  0  0  0  0  0  0  0  0  0
    3.3100    3.0849   18.6213 H   0  0  0  0  0  0  0  0  0  0  0  0
    2.5152    3.3630   20.9495 H   0  0  0  0  0  0  0  0  0  0  0  0
    3.5338    2.0291   22.7865 H   0  0  0  0  0  0  0  0  0  0  0  0
    5.3449    0.4355   22.3095 H   0  0  0  0  0  0  0  0  0  0  0  0
    8.1449   -1.8434   24.6661 H   0  0  0  0  0  0  0  0  0  0  0  0
    6.8880   -0.8984   23.8266 H   0  0  0  0  0  0  0  0  0  0  0  0
    6.7856    0.4222   25.6244 H   0  0  0  0  0  0  0  0  0  0  0  0
    8.2117    1.2303   26.2865 H   0  0  0  0  0  0  0  0  0  0  0  0
    6.5265    4.1550   22.2351 H   0  0  0  0  0  0  0  0  0  0  0  0
    5.9312    5.2610   24.7000 H   0  0  0  0  0  0  0  0  0  0  0  0
    7.5676    3.5756   27.3036 H   0  0  0  0  0  0  0  0  0  0  0  0
    6.0185    4.3885   27.0383 H   0  0  0  0  0  0  0  0  0  0  0  0
    6.0554    2.6387   27.2510 H   0  0  0  0  0  0  0  0  0  0  0  0
   12.4943    0.4371   24.3695 H   0  0  0  0  0  0  0  0  0  0  0  0
   13.9926   -1.0938   23.0594 H   0  0  0  0  0  0  0  0  0  0  0  0
   10.5605   -3.0536   21.4328 H   0  0  0  0  0  0  0  0  0  0  0  0
  1  2  1  0  0  0  0
  1 36  1  0  0  0  0
  1 37  1  0  0  0  0
  1 38  1  0  0  0  0
  2  3  1  0  0  0  0
  2 39  1  0  0  0  0
  3  4  1  0  0  0  0
  3 40  1  0  0  0  0
  3 41  1  0  0  0  0
  4  5  1  0  0  0  0
  4 15  1  0  0  0  0
  5  6  2  0  0  0  0
  6  7  1  0  0  0  0
  6 42  1  0  0  0  0
  7  8  2  0  0  0  0
  8  9  1  0  0  0  0
  8 43  1  0  0  0  0
  9 10  2  0  0  0  0
 10 11  1  0  0  0  0
 10 44  1  0  0  0  0
 11 12  2  0  0  0  0
 11 45  1  0  0  0  0
 12 13  1  0  0  0  0
 12 46  1  0  0  0  0
 13 14  2  0  0  0  0
 13 47  1  0  0  0  0
  5 14  1  0  0  0  0
  9 14  1  0  0  0  0
 15 16  2  0  0  0  0
 15 17  1  0  0  0  0
  2 17  1  0  0  0  0
 17 18  1  0  0  0  0
 18 19  1  0  0  0  0
 18 48  1  0  0  0  0
 18 49  1  0  0  0  0
 19 20  1  0  0  0  0
 19 27  1  0  0  0  0
 20 21  1  0  0  0  0
 20 50  1  0  0  0  0
 20 51  1  0  0  0  0
 21 22  2  0  0  0  0
 22 23  1  0  0  0  0
 23 24  2  0  0  0  0
 23 52  1  0  0  0  0
 24 25  1  0  0  0  0
 24 53  1  0  0  0  0
 21 25  1  0  0  0  0
 25 26  1  0  0  0  0
 26 54  1  0  0  0  0
 26 55  1  0  0  0  0
 26 56  1  0  0  0  0
 27 28  2  0  0  0  0
 27 29  1  0  0  0  0
 29 30  2  0  0  0  0
 30 31  1  0  0  0  0
 30 57  1  0  0  0  0
 31 32  2  0  0  0  0
 31 58  1  0  0  0  0
 32 33  1  0  0  0  0
 32 34  1  0  0  0  0
 34 35  2  0  0  0  0
 34 59  1  0  0  0  0
 17 35  1  0  0  0  0
 29 35  1  0  0  0  0
M  END
$$$$
