obj01
  PyMOL2.5          3D                             0

 59 64  0  0  1  0  0  0  0  0999 V2000
    7.6896   -3.8076   22.9354 C   0  0  0  0  0  0  0  0  0  0  0  0
    7.9643   -2.6618   21.9698 C   0  0  1  0  0  0  0  0  0  0  0  0
    6.7229   -2.1482   21.2273 C   0  0  0  0  0  0  0  0  0  0  0  0
    7.1363   -0.8232   20.8049 N   0  0  0  0  0  0  0  0  0  0  0  0
    6.4600   -0.0434   19.8297 C   0  0  0  0  0  0  0  0  0  0  0  0
    6.8093   -0.1555   18.5095 C   0  0  0  0  0  0  0  0  0  0  0  0
    6.2344    0.5402   17.4942 N   0  0  0  0  0  0  0  0  0  0  0  0
    5.2728    1.3779   17.8065 C   0  0  0  0  0  0  0  0  0  0  0  0
    4.7869    1.5773   19.1311 C   0  0  0  0  0  0  0  0  0  0  0  0
    3.7443    2.4995   19.4306 C   0  0  0  0  0  0  0  0  0  0  0  0
    3.3030    2.6514   20.7146 C   0  0  0  0  0  0  0  0  0  0  0  0
    3.8708    1.8856   21.7612 C   0  0  0  0  0  0  0  0  0  0  0  0
    4.8969    1.0117   21.5057 C   0  0  0  0  0  0  0  0  0  0  0  0
    5.3840    0.8358   20.1825 C   0  0  0  0  0  0  0  0  0  0  0  0
    8.2036   -0.3243   21.5216 C   0  0  0  0  0  0  0  0  0  0  0  0
    8.6973    0.7648   21.3314 O   0  0  0  0  0  0  0  0  0  0  0  0
    8.6081   -1.3846   22.5783 C   0  0  1  0  0  0  0  0  0  0  0  0
    7.9780   -1.0242   23.9497 C   0  0  0  0  0  0  0  0  0  0  0  0
    8.5204    0.2013   24.5035 N   0  0  0  0  0  0  0  0  0  0  0  0
    7.6553    0.9971   25.3572 C   0  0  0  0  0  0  0  0  0  0  0  0
    7.0262    2.1394   24.6177 C   0  0  0  0  0  0  0  0  0  0  0  0
    7.5876    2.9663   23.6756 C   0  0  0  0  0  0  0  0  0  0  0  0
    6.5768    3.8931   23.3729 C   0  0  0  0  0  0  0  0  0  0  0  0
    5.4722    3.6611   24.0764 N   0  0  0  0  0  0  0  0  0  0  0  0
    5.7643    2.5866   24.8268 N   0  0  0  0  0  0  0  0  0  0  0  0
    4.7691    1.9991   25.6940 C   0  0  0  0  0  0  0  0  0  0  0  0
    9.8484    0.5131   24.4171 C   0  0  0  0  0  0  0  0  0  0  0  0
   10.3198    1.5008   24.9625 O   0  0  0  0  0  0  0  0  0  0  0  0
   10.6925   -0.4396   23.6112 C   0  0  0  0  0  0  0  0  0  0  0  0
   12.0810   -0.3315   23.7119 C   0  0  0  0  0  0  0  0  0  0  0  0
   12.9124   -1.1774   23.0025 C   0  0  0  0  0  0  0  0  0  0  0  0
   12.3157   -2.1423   22.1944 C   0  0  0  0  0  0  0  0  0  0  0  0
   13.1047   -2.9689   21.4865 F   0  0  0  0  0  0  0  0  0  0  0  0
   10.9471   -2.2759   22.0707 C   0  0  0  0  0  0  0  0  0  0  0  0
   10.1073   -1.4072   22.7762 C   0  0  0  0  0  0  0  0  0  0  0  0
    8.5830   -4.0727   23.5102 H   0  0  0  0  0  0  0  0  0  0  0  0
    7.3526   -4.7069   22.4090 H   0  0  0  0  0  0  0  0  0  0  0  0
    6.9134   -3.5378   23.6583 H   0  0  0  0  0  0  0  0  0  0  0  0
    8.6414   -3.0275   21.1943 H   0  0  0  0  0  0  0  0  0  0  0  0
    5.8467   -2.1348   21.8999 H   0  0  0  0  0  0  0  0  0  0  0  0
    6.4617   -2.7620   20.3616 H   0  0  0  0  0  0  0  0  0  0  0  0
    7.6085   -0.8332   18.2172 H   0  0  0  0  0  0  0  0  0  0  0  0
    4.8214    1.9468   16.9908 H   0  0  0  0  0  0  0  0  0  0  0  0
    3.3132    3.0866   18.6203 H   0  0  0  0  0  0  0  0  0  0  0  0
    2.5172    3.3664   20.9496 H   0  0  0  0  0  0  0  0  0  0  0  0
    3.5207    2.0235   22.7800 H   0  0  0  0  0  0  0  0  0  0  0  0
    5.3468    0.4268   22.3053 H   0  0  0  0  0  0  0  0  0  0  0  0
    8.1498   -1.8443   24.6615 H   0  0  0  0  0  0  0  0  0  0  0  0
    6.8981   -0.8909   23.8324 H   0  0  0  0  0  0  0  0  0  0  0  0
    6.8946    0.3336   25.7967 H   0  0  0  0  0  0  0  0  0  0  0  0
    8.2751    1.3883   26.1711 H   0  0  0  0  0  0  0  0  0  0  0  0
    8.6017    2.9121   23.3023 H   0  0  0  0  0  0  0  0  0  0  0  0
    6.6185    4.7157   22.6742 H   0  0  0  0  0  0  0  0  0  0  0  0
    3.8849    2.6297   25.6799 H   0  0  0  0  0  0  0  0  0  0  0  0
    4.4916    0.9854   25.3859 H   0  0  0  0  0  0  0  0  0  0  0  0
    5.1386    1.9402   26.7198 H   0  0  0  0  0  0  0  0  0  0  0  0
   12.4974    0.4304   24.3610 H   0  0  0  0  0  0  0  0  0  0  0  0
   13.9970   -1.1038   23.0477 H   0  0  0  0  0  0  0  0  0  0  0  0
   10.5573   -3.0590   21.4267 H   0  0  0  0  0  0  0  0  0  0  0  0
  1  2  1  0  0  0  0
  1 36  1  0  0  0  0
  1 37  1  0  0  0  0
  1 38  1  0  0  0  0
  2  3  1  0  0  0  0
  2 39  1  0  0  0  0
  3  4  1  0  0  0  0
  3 40  1  0  0  0  0
  3 41  1  0  0  0  0
  4  5  1  0  0  0  0
  4 15  1  0  0  0  0
  5  6  2  0  0  0  0
  6  7  1  0  0  0  0
  6 42  1  0  0  0  0
  7  8  2  0  0  0  0
  8  9  1  0  0  0  0
  8 43  1  0  0  0  0
  9 10  2  0  0  0  0
 10 11  1  0  0  0  0
 10 44  1  0  0  0  0
 11 12  2  0  0  0  0
 11 45  1  0  0  0  0
 12 13  1  0  0  0  0
 12 46  1  0  0  0  0
 13 14  2  0  0  0  0
 13 47  1  0  0  0  0
  5 14  1  0  0  0  0
  9 14  1  0  0  0  0
 15 16  2  0  0  0  0
 15 17  1  0  0  0  0
  2 17  1  0  0  0  0
 17 18  1  0  0  0  0
 18 19  1  0  0  0  0
 18 48  1  0  0  0  0
 18 49  1  0  0  0  0
 19 20  1  0  0  0  0
 19 27  1  0  0  0  0
 20 21  1  0  0  0  0
 20 50  1  0  0  0  0
 20 51  1  0  0  0  0
 21 22  2  0  0  0  0
 22 23  1  0  0  0  0
 22 52  1  0  0  0  0
 23 24  2  0  0  0  0
 23 53  1  0  0  0  0
 24 25  1  0  0  0  0
 21 25  1  0  0  0  0
 25 26  1  0  0  0  0
 26 54  1  0  0  0  0
 26 55  1  0  0  0  0
 26 56  1  0  0  0  0
 27 28  2  0  0  0  0
 27 29  1  0  0  0  0
 29 30  2  0  0  0  0
 30 31  1  0  0  0  0
 30 57  1  0  0  0  0
 31 32  2  0  0  0  0
 31 58  1  0  0  0  0
 32 33  1  0  0  0  0
 32 34  1  0  0  0  0
 34 35  2  0  0  0  0
 34 59  1  0  0  0  0
 17 35  1  0  0  0  0
 29 35  1  0  0  0  0
M  END
$$$$
