obj01
  PyMOL2.5          3D                             0

 66 71  0  0  1  0  0  0  0  0999 V2000
    6.9738    3.8288   22.9191 C   0  0  0  0  0  0  0  0  0  0  0  0
    7.5930    2.6851   23.5649 N   0  0  0  0  0  0  0  0  0  0  0  0
    7.1328    2.2728   24.7676 C   0  0  0  0  0  0  0  0  0  0  0  0
    6.3017    2.8942   25.4201 O   0  0  0  0  0  0  0  0  0  0  0  0
    7.6944    0.9677   25.3485 C   0  0  0  0  0  0  0  0  0  0  0  0
    8.5132    0.1523   24.4798 N   0  0  0  0  0  0  0  0  0  0  0  0
    7.9540   -1.0701   23.9227 C   0  0  0  0  0  0  0  0  0  0  0  0
    8.5841   -1.4190   22.5485 C   0  0  2  0  0  0  0  0  0  0  0  0
    8.1713   -0.3442   21.5127 C   0  0  0  0  0  0  0  0  0  0  0  0
    8.6588    0.7596   21.3571 O   0  0  0  0  0  0  0  0  0  0  0  0
    7.1162   -0.8374   20.7831 N   0  0  0  0  0  0  0  0  0  0  0  0
    6.4473   -0.0508   19.8157 C   0  0  0  0  0  0  0  0  0  0  0  0
    6.8094   -0.1532   18.4979 C   0  0  0  0  0  0  0  0  0  0  0  0
    6.2442    0.5524   17.4840 N   0  0  0  0  0  0  0  0  0  0  0  0
    5.2796    1.3832   17.8070 C   0  0  0  0  0  0  0  0  0  0  0  0
    4.8014    1.5810   19.1367 C   0  0  0  0  0  0  0  0  0  0  0  0
    3.7537    2.4925   19.4333 C   0  0  0  0  0  0  0  0  0  0  0  0
    3.3039    2.6453   20.7161 C   0  0  0  0  0  0  0  0  0  0  0  0
    3.8755    1.8949   21.7671 C   0  0  0  0  0  0  0  0  0  0  0  0
    4.8991    1.0167   21.5102 C   0  0  0  0  0  0  0  0  0  0  0  0
    5.3928    0.8404   20.1846 C   0  0  0  0  0  0  0  0  0  0  0  0
    6.6937   -2.1630   21.1785 C   0  0  0  0  0  0  0  0  0  0  0  0
    7.9481   -2.6830   21.9021 C   0  0  2  0  0  0  0  0  0  0  0  0
    7.7093   -3.8795   22.8382 C   0  0  0  0  0  0  0  0  0  0  0  0
    7.3521   -5.1242   22.1860 N   0  0  0  0  0  0  0  0  0  0  0  0
    6.1083   -5.4050   21.7144 C   0  0  0  0  0  0  0  0  0  0  0  0
    4.9330   -4.8146   22.2109 C   0  0  0  0  0  0  0  0  0  0  0  0
    3.7523   -5.2016   21.6121 C   0  0  0  0  0  0  0  0  0  0  0  0
    3.6904   -6.0431   20.5781 N   0  0  0  0  0  0  0  0  0  0  0  0
    4.8617   -6.5321   20.2017 C   0  0  0  0  0  0  0  0  0  0  0  0
    6.0533   -6.3111   20.7298 N   0  0  0  0  0  0  0  0  0  0  0  0
   10.0876   -1.4390   22.7344 C   0  0  0  0  0  0  0  0  0  0  0  0
   10.9416   -2.2961   22.0288 C   0  0  0  0  0  0  0  0  0  0  0  0
   12.3146   -2.1679   22.1530 C   0  0  0  0  0  0  0  0  0  0  0  0
   13.3498   -3.2300   21.2395 Cl  0  0  0  0  0  0  0  0  0  0  0  0
   12.8962   -1.2024   22.9725 C   0  0  0  0  0  0  0  0  0  0  0  0
   12.0634   -0.3656   23.6857 C   0  0  0  0  0  0  0  0  0  0  0  0
   10.6783   -0.4922   23.5843 C   0  0  0  0  0  0  0  0  0  0  0  0
    9.8539    0.4276   24.4310 C   0  0  0  0  0  0  0  0  0  0  0  0
   10.3524    1.3751   25.0230 O   0  0  0  0  0  0  0  0  0  0  0  0
    7.0542    4.7291   23.5371 H   0  0  0  0  0  0  0  0  0  0  0  0
    7.4849    4.0051   21.9696 H   0  0  0  0  0  0  0  0  0  0  0  0
    5.9104    3.6399   22.7204 H   0  0  0  0  0  0  0  0  0  0  0  0
    8.1910    2.0917   23.0004 H   0  0  0  0  0  0  0  0  0  0  0  0
    8.2787    1.2389   26.2326 H   0  0  0  0  0  0  0  0  0  0  0  0
    6.8289    0.3923   25.6912 H   0  0  0  0  0  0  0  0  0  0  0  0
    8.1252   -1.9090   24.6094 H   0  0  0  0  0  0  0  0  0  0  0  0
    6.8722   -0.9304   23.8162 H   0  0  0  0  0  0  0  0  0  0  0  0
    7.6151   -0.8321   18.2216 H   0  0  0  0  0  0  0  0  0  0  0  0
    4.8063    1.9462   17.0007 H   0  0  0  0  0  0  0  0  0  0  0  0
    3.3233    3.0635   18.6173 H   0  0  0  0  0  0  0  0  0  0  0  0
    2.5086    3.3489   20.9430 H   0  0  0  0  0  0  0  0  0  0  0  0
    3.5234    2.0369   22.7865 H   0  0  0  0  0  0  0  0  0  0  0  0
    5.3269    0.4456   22.3287 H   0  0  0  0  0  0  0  0  0  0  0  0
    6.4046   -2.7499   20.3030 H   0  0  0  0  0  0  0  0  0  0  0  0
    5.8186   -2.1108   21.8467 H   0  0  0  0  0  0  0  0  0  0  0  0
    8.6348   -2.9888   21.1078 H   0  0  0  0  0  0  0  0  0  0  0  0
    8.5939   -4.0719   23.4564 H   0  0  0  0  0  0  0  0  0  0  0  0
    6.8998   -3.6429   23.5314 H   0  0  0  0  0  0  0  0  0  0  0  0
    8.0673   -5.6031   21.6540 H   0  0  0  0  0  0  0  0  0  0  0  0
    4.9461   -4.0637   22.9879 H   0  0  0  0  0  0  0  0  0  0  0  0
    2.7920   -4.8127   21.9505 H   0  0  0  0  0  0  0  0  0  0  0  0
    4.8555   -7.1776   19.3368 H   0  0  0  0  0  0  0  0  0  0  0  0
   10.5614   -3.0780   21.3824 H   0  0  0  0  0  0  0  0  0  0  0  0
   13.9771   -1.1271   23.0398 H   0  0  0  0  0  0  0  0  0  0  0  0
   12.4646    0.4015   24.3387 H   0  0  0  0  0  0  0  0  0  0  0  0
  1  2  1  0  0  0  0
  1 41  1  0  0  0  0
  1 42  1  0  0  0  0
  1 43  1  0  0  0  0
  2  3  1  0  0  0  0
  2 44  1  0  0  0  0
  3  4  2  0  0  0  0
  3  5  1  0  0  0  0
  5  6  1  0  0  0  0
  5 45  1  0  0  0  0
  5 46  1  0  0  0  0
  6  7  1  0  0  0  0
  7 47  1  0  0  0  0
  7 48  1  0  0  0  0
  7  8  1  0  0  0  0
  8  9  1  0  0  0  0
  8 32  1  0  0  0  0
  9 10  2  0  0  0  0
  9 11  1  0  0  0  0
 11 12  1  0  0  0  0
 11 22  1  0  0  0  0
 12 13  2  0  0  0  0
 13 14  1  0  0  0  0
 13 49  1  0  0  0  0
 14 15  2  0  0  0  0
 15 16  1  0  0  0  0
 15 50  1  0  0  0  0
 16 17  2  0  0  0  0
 17 18  1  0  0  0  0
 17 51  1  0  0  0  0
 18 19  2  0  0  0  0
 18 52  1  0  0  0  0
 19 20  1  0  0  0  0
 19 53  1  0  0  0  0
 20 21  2  0  0  0  0
 20 54  1  0  0  0  0
 12 21  1  0  0  0  0
 16 21  1  0  0  0  0
 22 23  1  0  0  0  0
 22 55  1  0  0  0  0
 22 56  1  0  0  0  0
  8 23  1  0  0  0  0
 23 24  1  0  0  0  0
 23 57  1  0  0  0  0
 24 25  1  0  0  0  0
 24 58  1  0  0  0  0
 24 59  1  0  0  0  0
 25 26  1  0  0  0  0
 25 60  1  0  0  0  0
 26 27  2  0  0  0  0
 27 28  1  0  0  0  0
 27 61  1  0  0  0  0
 28 29  2  0  0  0  0
 28 62  1  0  0  0  0
 29 30  1  0  0  0  0
 30 31  2  0  0  0  0
 30 63  1  0  0  0  0
 26 31  1  0  0  0  0
 32 33  2  0  0  0  0
 33 34  1  0  0  0  0
 33 64  1  0  0  0  0
 34 35  1  0  0  0  0
 34 36  2  0  0  0  0
 36 37  1  0  0  0  0
 36 65  1  0  0  0  0
 37 38  2  0  0  0  0
 37 66  1  0  0  0  0
 32 38  1  0  0  0  0
 38 39  1  0  0  0  0
  6 39  1  0  0  0  0
 39 40  2  0  0  0  0
M  END
$$$$
