obj01
  PyMOL2.5          3D                             0

 67 72  0  0  1  0  0  0  0  0999 V2000
    6.9732    3.8224   22.8994 C   0  0  0  0  0  0  0  0  0  0  0  0
    7.5835    2.6641   23.5264 N   0  0  0  0  0  0  0  0  0  0  0  0
    7.1392    2.2731   24.7447 C   0  0  0  0  0  0  0  0  0  0  0  0
    6.3170    2.9081   25.3926 O   0  0  0  0  0  0  0  0  0  0  0  0
    7.7222    0.9878   25.3475 C   0  0  0  0  0  0  0  0  0  0  0  0
    8.5330    0.1723   24.4704 N   0  0  0  0  0  0  0  0  0  0  0  0
    7.9738   -1.0500   23.9135 C   0  0  0  0  0  0  0  0  0  0  0  0
    8.6031   -1.3950   22.5349 C   0  0  2  0  0  0  0  0  0  0  0  0
    8.1600   -0.3369   21.4940 C   0  0  0  0  0  0  0  0  0  0  0  0
    8.6132    0.7818   21.3356 O   0  0  0  0  0  0  0  0  0  0  0  0
    7.1085   -0.8560   20.7735 N   0  0  0  0  0  0  0  0  0  0  0  0
    6.4325   -0.0688   19.8095 C   0  0  0  0  0  0  0  0  0  0  0  0
    6.8118   -0.1496   18.4940 C   0  0  0  0  0  0  0  0  0  0  0  0
    6.2493    0.5605   17.4835 N   0  0  0  0  0  0  0  0  0  0  0  0
    5.2795    1.3838   17.8110 C   0  0  0  0  0  0  0  0  0  0  0  0
    4.7997    1.5780   19.1387 C   0  0  0  0  0  0  0  0  0  0  0  0
    3.7527    2.4927   19.4303 C   0  0  0  0  0  0  0  0  0  0  0  0
    3.3073    2.6466   20.7136 C   0  0  0  0  0  0  0  0  0  0  0  0
    3.8818    1.9021   21.7688 C   0  0  0  0  0  0  0  0  0  0  0  0
    4.9015    1.0183   21.5143 C   0  0  0  0  0  0  0  0  0  0  0  0
    5.3889    0.8319   20.1867 C   0  0  0  0  0  0  0  0  0  0  0  0
    6.7065   -2.1813   21.2004 C   0  0  0  0  0  0  0  0  0  0  0  0
    7.9774   -2.6654   21.9080 C   0  0  2  0  0  0  0  0  0  0  0  0
    7.7452   -3.8507   22.8434 C   0  0  0  0  0  0  0  0  0  0  0  0
    7.3942   -5.0519   22.1236 N   0  0  0  0  0  0  0  0  0  0  0  0
    6.0927   -5.3267   21.8070 C   0  0  0  0  0  0  0  0  0  0  0  0
    4.9593   -4.7476   22.3058 C   0  0  0  0  0  0  0  0  0  0  0  0
    3.7711   -5.2818   21.8851 N   0  0  0  0  0  0  0  0  0  0  0  0
    3.9543   -6.2720   21.0713 C   0  0  0  0  0  0  0  0  0  0  0  0
    2.7952   -7.0562   20.5536 C   0  0  0  0  0  0  0  0  0  0  0  0
    5.6372   -6.6231   20.7249 S   0  0  0  0  0  0  0  0  0  0  0  0
   10.1086   -1.4089   22.7133 C   0  0  0  0  0  0  0  0  0  0  0  0
   10.9595   -2.2706   22.0066 C   0  0  0  0  0  0  0  0  0  0  0  0
   12.3307   -2.1416   22.1373 C   0  0  0  0  0  0  0  0  0  0  0  0
   13.3708   -3.2079   21.2412 Cl  0  0  0  0  0  0  0  0  0  0  0  0
   12.9129   -1.1754   22.9549 C   0  0  0  0  0  0  0  0  0  0  0  0
   12.0837   -0.3375   23.6673 C   0  0  0  0  0  0  0  0  0  0  0  0
   10.7000   -0.4658   23.5679 C   0  0  0  0  0  0  0  0  0  0  0  0
    9.8759    0.4334   24.4317 C   0  0  0  0  0  0  0  0  0  0  0  0
   10.3776    1.3565   25.0629 O   0  0  0  0  0  0  0  0  0  0  0  0
    7.4838    4.0197   21.9526 H   0  0  0  0  0  0  0  0  0  0  0  0
    5.9105    3.6355   22.6974 H   0  0  0  0  0  0  0  0  0  0  0  0
    7.0541    4.7111   23.5361 H   0  0  0  0  0  0  0  0  0  0  0  0
    8.1127    2.0325   22.9340 H   0  0  0  0  0  0  0  0  0  0  0  0
    8.3205    1.2803   26.2191 H   0  0  0  0  0  0  0  0  0  0  0  0
    6.8739    0.4067   25.7241 H   0  0  0  0  0  0  0  0  0  0  0  0
    8.1508   -1.8854   24.6052 H   0  0  0  0  0  0  0  0  0  0  0  0
    6.8898   -0.9119   23.8157 H   0  0  0  0  0  0  0  0  0  0  0  0
    7.6254   -0.8204   18.2248 H   0  0  0  0  0  0  0  0  0  0  0  0
    4.8087    1.9491   17.0072 H   0  0  0  0  0  0  0  0  0  0  0  0
    3.3155    3.0621   18.6133 H   0  0  0  0  0  0  0  0  0  0  0  0
    2.5024    3.3399   20.9361 H   0  0  0  0  0  0  0  0  0  0  0  0
    3.5263    2.0444   22.7880 H   0  0  0  0  0  0  0  0  0  0  0  0
    5.3346    0.4594   22.3403 H   0  0  0  0  0  0  0  0  0  0  0  0
    6.4342   -2.8208   20.3560 H   0  0  0  0  0  0  0  0  0  0  0  0
    5.8357   -2.1527   21.8792 H   0  0  0  0  0  0  0  0  0  0  0  0
    8.6423   -2.9785   21.0962 H   0  0  0  0  0  0  0  0  0  0  0  0
    8.6370   -4.0348   23.4533 H   0  0  0  0  0  0  0  0  0  0  0  0
    6.9233   -3.6248   23.5326 H   0  0  0  0  0  0  0  0  0  0  0  0
    8.1220   -5.5695   21.6526 H   0  0  0  0  0  0  0  0  0  0  0  0
    4.9440   -3.9383   23.0249 H   0  0  0  0  0  0  0  0  0  0  0  0
    2.5320   -7.8634   21.2517 H   0  0  0  0  0  0  0  0  0  0  0  0
    2.9838   -7.4690   19.5606 H   0  0  0  0  0  0  0  0  0  0  0  0
    1.9349   -6.3863   20.5257 H   0  0  0  0  0  0  0  0  0  0  0  0
   10.5858   -3.0546   21.3563 H   0  0  0  0  0  0  0  0  0  0  0  0
   13.9909   -1.0912   23.0285 H   0  0  0  0  0  0  0  0  0  0  0  0
   12.4843    0.4290   24.3206 H   0  0  0  0  0  0  0  0  0  0  0  0
  1  2  1  0  0  0  0
  1 41  1  0  0  0  0
  1 42  1  0  0  0  0
  1 43  1  0  0  0  0
  2  3  1  0  0  0  0
  2 44  1  0  0  0  0
  3  4  2  0  0  0  0
  3  5  1  0  0  0  0
  5  6  1  0  0  0  0
  5 45  1  0  0  0  0
  5 46  1  0  0  0  0
  6  7  1  0  0  0  0
  7 47  1  0  0  0  0
  7 48  1  0  0  0  0
  7  8  1  0  0  0  0
  8  9  1  0  0  0  0
  8 32  1  0  0  0  0
  9 10  2  0  0  0  0
  9 11  1  0  0  0  0
 11 12  1  0  0  0  0
 11 22  1  0  0  0  0
 12 13  2  0  0  0  0
 13 14  1  0  0  0  0
 13 49  1  0  0  0  0
 14 15  2  0  0  0  0
 15 16  1  0  0  0  0
 15 50  1  0  0  0  0
 16 17  2  0  0  0  0
 17 18  1  0  0  0  0
 17 51  1  0  0  0  0
 18 19  2  0  0  0  0
 18 52  1  0  0  0  0
 19 20  1  0  0  0  0
 19 53  1  0  0  0  0
 20 21  2  0  0  0  0
 20 54  1  0  0  0  0
 12 21  1  0  0  0  0
 16 21  1  0  0  0  0
 22 23  1  0  0  0  0
 22 55  1  0  0  0  0
 22 56  1  0  0  0  0
  8 23  1  0  0  0  0
 23 24  1  0  0  0  0
 23 57  1  0  0  0  0
 24 25  1  0  0  0  0
 24 58  1  0  0  0  0
 24 59  1  0  0  0  0
 25 26  1  0  0  0  0
 25 60  1  0  0  0  0
 26 27  2  0  0  0  0
 27 28  1  0  0  0  0
 27 61  1  0  0  0  0
 28 29  2  0  0  0  0
 29 30  1  0  0  0  0
 29 31  1  0  0  0  0
 30 62  1  0  0  0  0
 30 63  1  0  0  0  0
 30 64  1  0  0  0  0
 26 31  1  0  0  0  0
 32 33  2  0  0  0  0
 33 34  1  0  0  0  0
 33 65  1  0  0  0  0
 34 35  1  0  0  0  0
 34 36  2  0  0  0  0
 36 37  1  0  0  0  0
 36 66  1  0  0  0  0
 37 38  2  0  0  0  0
 37 67  1  0  0  0  0
 32 38  1  0  0  0  0
 38 39  1  0  0  0  0
  6 39  1  0  0  0  0
 39 40  2  0  0  0  0
M  END
$$$$
