obj01
  PyMOL2.5          3D                             0

 58 63  0  0  1  0  0  0  0  0999 V2000
    4.7931    4.9193   23.9125 C   0  0  0  0  0  0  0  0  0  0  0  0
    5.8504    3.8747   24.0121 C   0  0  0  0  0  0  0  0  0  0  0  0
    5.9326    2.8727   25.0090 C   0  0  0  0  0  0  0  0  0  0  0  0
    7.0449    2.1781   24.6636 C   0  0  0  0  0  0  0  0  0  0  0  0
    7.6685    1.0000   25.3439 C   0  0  0  0  0  0  0  0  0  0  0  0
    8.5108    0.2026   24.4895 N   0  0  0  0  0  0  0  0  0  0  0  0
    7.9687   -1.0310   23.9476 C   0  0  0  0  0  0  0  0  0  0  0  0
    8.6030   -1.3893   22.5788 C   0  0  2  0  0  0  0  0  0  0  0  0
    8.2001   -0.3226   21.5241 C   0  0  0  0  0  0  0  0  0  0  0  0
    8.6899    0.7676   21.3429 O   0  0  0  0  0  0  0  0  0  0  0  0
    7.1317   -0.8219   20.8064 N   0  0  0  0  0  0  0  0  0  0  0  0
    6.4570   -0.0442   19.8291 C   0  0  0  0  0  0  0  0  0  0  0  0
    6.8097   -0.1559   18.5088 C   0  0  0  0  0  0  0  0  0  0  0  0
    6.2374    0.5412   17.4942 N   0  0  0  0  0  0  0  0  0  0  0  0
    5.2737    1.3789   17.8041 C   0  0  0  0  0  0  0  0  0  0  0  0
    4.7849    1.5766   19.1290 C   0  0  0  0  0  0  0  0  0  0  0  0
    3.7427    2.4979   19.4297 C   0  0  0  0  0  0  0  0  0  0  0  0
    3.3074    2.6536   20.7175 C   0  0  0  0  0  0  0  0  0  0  0  0
    3.8846    1.8984   21.7660 C   0  0  0  0  0  0  0  0  0  0  0  0
    4.8957    1.0090   21.5040 C   0  0  0  0  0  0  0  0  0  0  0  0
    5.3803    0.8327   20.1794 C   0  0  0  0  0  0  0  0  0  0  0  0
    6.7206   -2.1484   21.2263 C   0  0  0  0  0  0  0  0  0  0  0  0
    7.9604   -2.6649   21.9684 C   0  0  2  0  0  0  0  0  0  0  0  0
    7.6855   -3.8092   22.9347 C   0  0  0  0  0  0  0  0  0  0  0  0
   10.1022   -1.4074   22.7818 C   0  0  0  0  0  0  0  0  0  0  0  0
   10.9435   -2.2746   22.0778 C   0  0  0  0  0  0  0  0  0  0  0  0
   12.3109   -2.1387   22.2045 C   0  0  0  0  0  0  0  0  0  0  0  0
   13.1005   -2.9647   21.4969 F   0  0  0  0  0  0  0  0  0  0  0  0
   12.9048   -1.1750   23.0131 C   0  0  0  0  0  0  0  0  0  0  0  0
   12.0725   -0.3289   23.7209 C   0  0  0  0  0  0  0  0  0  0  0  0
   10.6837   -0.4341   23.6137 C   0  0  0  0  0  0  0  0  0  0  0  0
    9.8386    0.5223   24.4080 C   0  0  0  0  0  0  0  0  0  0  0  0
   10.3083    1.4996   24.9696 O   0  0  0  0  0  0  0  0  0  0  0  0
    7.5898    2.6935   23.5633 O   0  0  0  0  0  0  0  0  0  0  0  0
    6.8399    3.7770   23.1482 N   0  0  0  0  0  0  0  0  0  0  0  0
    5.1205    5.7779   23.3273 H   0  0  0  0  0  0  0  0  0  0  0  0
    3.8995    4.4999   23.4438 H   0  0  0  0  0  0  0  0  0  0  0  0
    4.4935    5.2476   24.9096 H   0  0  0  0  0  0  0  0  0  0  0  0
    5.2708    2.6966   25.8496 H   0  0  0  0  0  0  0  0  0  0  0  0
    6.8527    0.3843   25.7303 H   0  0  0  0  0  0  0  0  0  0  0  0
    8.2405    1.3321   26.2156 H   0  0  0  0  0  0  0  0  0  0  0  0
    6.8871   -0.9019   23.8274 H   0  0  0  0  0  0  0  0  0  0  0  0
    8.1409   -1.8438   24.6660 H   0  0  0  0  0  0  0  0  0  0  0  0
    7.6113   -0.8319   18.2187 H   0  0  0  0  0  0  0  0  0  0  0  0
    4.8229    1.9482   16.9885 H   0  0  0  0  0  0  0  0  0  0  0  0
    3.3097    3.0848   18.6207 H   0  0  0  0  0  0  0  0  0  0  0  0
    2.5126    3.3631   20.9444 H   0  0  0  0  0  0  0  0  0  0  0  0
    3.5244    2.0164   22.7852 H   0  0  0  0  0  0  0  0  0  0  0  0
    5.3406    0.4272   22.3080 H   0  0  0  0  0  0  0  0  0  0  0  0
    6.4655   -2.7630   20.3607 H   0  0  0  0  0  0  0  0  0  0  0  0
    5.8458   -2.1379   21.8979 H   0  0  0  0  0  0  0  0  0  0  0  0
    8.6370   -3.0313   21.1926 H   0  0  0  0  0  0  0  0  0  0  0  0
    6.9080   -3.5407   23.6548 H   0  0  0  0  0  0  0  0  0  0  0  0
    8.5775   -4.0737   23.5112 H   0  0  0  0  0  0  0  0  0  0  0  0
    7.3507   -4.7070   22.4072 H   0  0  0  0  0  0  0  0  0  0  0  0
   10.5555   -3.0566   21.4332 H   0  0  0  0  0  0  0  0  0  0  0  0
   13.9876   -1.0999   23.0617 H   0  0  0  0  0  0  0  0  0  0  0  0
   12.4908    0.4309   24.3715 H   0  0  0  0  0  0  0  0  0  0  0  0
  1  2  1  0  0  0  0
  1 36  1  0  0  0  0
  1 37  1  0  0  0  0
  1 38  1  0  0  0  0
  2  3  1  0  0  0  0
  3  4  2  0  0  0  0
  3 39  1  0  0  0  0
  4  5  1  0  0  0  0
  4 34  1  0  0  0  0
  5  6  1  0  0  0  0
  5 40  1  0  0  0  0
  5 41  1  0  0  0  0
  6  7  1  0  0  0  0
  7 42  1  0  0  0  0
  7 43  1  0  0  0  0
  7  8  1  0  0  0  0
  8  9  1  0  0  0  0
  8 25  1  0  0  0  0
  9 10  2  0  0  0  0
  9 11  1  0  0  0  0
 11 12  1  0  0  0  0
 11 22  1  0  0  0  0
 12 13  2  0  0  0  0
 13 14  1  0  0  0  0
 13 44  1  0  0  0  0
 14 15  2  0  0  0  0
 15 16  1  0  0  0  0
 15 45  1  0  0  0  0
 16 17  2  0  0  0  0
 17 18  1  0  0  0  0
 17 46  1  0  0  0  0
 18 19  2  0  0  0  0
 18 47  1  0  0  0  0
 19 20  1  0  0  0  0
 19 48  1  0  0  0  0
 20 21  2  0  0  0  0
 20 49  1  0  0  0  0
 12 21  1  0  0  0  0
 16 21  1  0  0  0  0
 22 23  1  0  0  0  0
 22 50  1  0  0  0  0
 22 51  1  0  0  0  0
  8 23  1  0  0  0  0
 23 24  1  0  0  0  0
 23 52  1  0  0  0  0
 24 53  1  0  0  0  0
 24 54  1  0  0  0  0
 24 55  1  0  0  0  0
 25 26  2  0  0  0  0
 26 27  1  0  0  0  0
 26 56  1  0  0  0  0
 27 28  1  0  0  0  0
 27 29  2  0  0  0  0
 29 30  1  0  0  0  0
 29 57  1  0  0  0  0
 30 31  2  0  0  0  0
 30 58  1  0  0  0  0
 25 31  1  0  0  0  0
 31 32  1  0  0  0  0
  6 32  1  0  0  0  0
 32 33  2  0  0  0  0
 34 35  1  0  0  0  0
  2 35  2  0  0  0  0
M  END
$$$$
