obj01
  PyMOL2.5          3D                             0

 68 73  0  0  1  0  0  0  0  0999 V2000
    6.9646    3.8595   22.9310 C   0  0  0  0  0  0  0  0  0  0  0  0
    7.5729    2.7199   23.5918 N   0  0  0  0  0  0  0  0  0  0  0  0
    7.1220    2.3127   24.7969 C   0  0  0  0  0  0  0  0  0  0  0  0
    6.2894    2.9346   25.4465 O   0  0  0  0  0  0  0  0  0  0  0  0
    7.6782    0.9931   25.3550 C   0  0  0  0  0  0  0  0  0  0  0  0
    8.5068    0.1959   24.4755 N   0  0  0  0  0  0  0  0  0  0  0  0
    7.9665   -1.0404   23.9414 C   0  0  0  0  0  0  0  0  0  0  0  0
    8.6022   -1.3910   22.5729 C   0  0  2  0  0  0  0  0  0  0  0  0
    8.1877   -0.3278   21.5185 C   0  0  0  0  0  0  0  0  0  0  0  0
    8.6752    0.7724   21.3407 O   0  0  0  0  0  0  0  0  0  0  0  0
    7.1234   -0.8328   20.8002 N   0  0  0  0  0  0  0  0  0  0  0  0
    6.4552   -0.0471   19.8228 C   0  0  0  0  0  0  0  0  0  0  0  0
    6.8125   -0.1504   18.5041 C   0  0  0  0  0  0  0  0  0  0  0  0
    6.2365    0.5473   17.4897 N   0  0  0  0  0  0  0  0  0  0  0  0
    5.2723    1.3786   17.8080 C   0  0  0  0  0  0  0  0  0  0  0  0
    4.7904    1.5813   19.1352 C   0  0  0  0  0  0  0  0  0  0  0  0
    3.7424    2.4949   19.4325 C   0  0  0  0  0  0  0  0  0  0  0  0
    3.2969    2.6455   20.7175 C   0  0  0  0  0  0  0  0  0  0  0  0
    3.8721    1.8898   21.7658 C   0  0  0  0  0  0  0  0  0  0  0  0
    4.8944    1.0110   21.5044 C   0  0  0  0  0  0  0  0  0  0  0  0
    5.3909    0.8411   20.1819 C   0  0  0  0  0  0  0  0  0  0  0  0
    6.7136   -2.1659   21.2072 C   0  0  0  0  0  0  0  0  0  0  0  0
    7.9662   -2.6677   21.9465 C   0  0  2  0  0  0  0  0  0  0  0  0
    7.7129   -3.8413   22.9133 C   0  0  0  0  0  0  0  0  0  0  0  0
    7.3548   -5.0943   22.2892 N   0  0  0  0  0  0  0  0  0  0  0  0
    6.0462   -5.3938   21.9410 C   0  0  0  0  0  0  0  0  0  0  0  0
    5.6156   -6.4497   21.0895 C   0  0  0  0  0  0  0  0  0  0  0  0
    4.2906   -6.5057   21.0178 N   0  0  0  0  0  0  0  0  0  0  0  0
    3.8480   -5.5254   21.8055 N   0  0  0  0  0  0  0  0  0  0  0  0
    2.4328   -5.2603   21.9346 C   0  0  0  0  0  0  0  0  0  0  0  0
    4.8650   -4.8242   22.3817 C   0  0  0  0  0  0  0  0  0  0  0  0
   10.1049   -1.4081   22.7653 C   0  0  0  0  0  0  0  0  0  0  0  0
   10.9495   -2.2742   22.0604 C   0  0  0  0  0  0  0  0  0  0  0  0
   12.3231   -2.1477   22.1701 C   0  0  0  0  0  0  0  0  0  0  0  0
   13.3522   -3.2022   21.2374 Cl  0  0  0  0  0  0  0  0  0  0  0  0
   12.9047   -1.1819   22.9928 C   0  0  0  0  0  0  0  0  0  0  0  0
   12.0752   -0.3418   23.7120 C   0  0  0  0  0  0  0  0  0  0  0  0
   10.6900   -0.4534   23.6110 C   0  0  0  0  0  0  0  0  0  0  0  0
    9.8428    0.4860   24.4212 C   0  0  0  0  0  0  0  0  0  0  0  0
   10.2999    1.4739   24.9849 O   0  0  0  0  0  0  0  0  0  0  0  0
    5.9005    3.6703   22.7344 H   0  0  0  0  0  0  0  0  0  0  0  0
    7.0460    4.7675   23.5399 H   0  0  0  0  0  0  0  0  0  0  0  0
    7.4808    4.0055   21.9778 H   0  0  0  0  0  0  0  0  0  0  0  0
    8.3239    2.2320   23.1231 H   0  0  0  0  0  0  0  0  0  0  0  0
    6.8002    0.4087   25.6447 H   0  0  0  0  0  0  0  0  0  0  0  0
    8.2340    1.2348   26.2676 H   0  0  0  0  0  0  0  0  0  0  0  0
    6.8850   -0.9053   23.8243 H   0  0  0  0  0  0  0  0  0  0  0  0
    8.1432   -1.8652   24.6469 H   0  0  0  0  0  0  0  0  0  0  0  0
    7.6106   -0.8327   18.2170 H   0  0  0  0  0  0  0  0  0  0  0  0
    4.8269    1.9440   16.9889 H   0  0  0  0  0  0  0  0  0  0  0  0
    3.3205    3.0746   18.6144 H   0  0  0  0  0  0  0  0  0  0  0  0
    2.5114    3.3603   20.9498 H   0  0  0  0  0  0  0  0  0  0  0  0
    3.5315    2.0331   22.7897 H   0  0  0  0  0  0  0  0  0  0  0  0
    5.3384    0.4354   22.3119 H   0  0  0  0  0  0  0  0  0  0  0  0
    5.8318   -2.1403   21.8709 H   0  0  0  0  0  0  0  0  0  0  0  0
    6.4375   -2.7760   20.3421 H   0  0  0  0  0  0  0  0  0  0  0  0
    8.6664   -2.9896   21.1678 H   0  0  0  0  0  0  0  0  0  0  0  0
    8.6247   -4.0107   23.4994 H   0  0  0  0  0  0  0  0  0  0  0  0
    6.9024   -3.5720   23.6099 H   0  0  0  0  0  0  0  0  0  0  0  0
    8.0686   -5.5616   21.7452 H   0  0  0  0  0  0  0  0  0  0  0  0
    6.1971   -7.1787   20.5252 H   0  0  0  0  0  0  0  0  0  0  0  0
    2.2380   -4.9379   22.9616 H   0  0  0  0  0  0  0  0  0  0  0  0
    1.8908   -6.1818   21.7151 H   0  0  0  0  0  0  0  0  0  0  0  0
    2.1106   -4.4813   21.2344 H   0  0  0  0  0  0  0  0  0  0  0  0
    4.6535   -3.9876   23.0404 H   0  0  0  0  0  0  0  0  0  0  0  0
   10.5434   -3.0501   21.4227 H   0  0  0  0  0  0  0  0  0  0  0  0
   13.9841   -1.0951   23.0554 H   0  0  0  0  0  0  0  0  0  0  0  0
   12.4659    0.4301   24.3652 H   0  0  0  0  0  0  0  0  0  0  0  0
  1  2  1  0  0  0  0
  1 41  1  0  0  0  0
  1 42  1  0  0  0  0
  1 43  1  0  0  0  0
  2  3  1  0  0  0  0
  2 44  1  0  0  0  0
  3  4  2  0  0  0  0
  3  5  1  0  0  0  0
  5  6  1  0  0  0  0
  5 45  1  0  0  0  0
  5 46  1  0  0  0  0
  6  7  1  0  0  0  0
  7 47  1  0  0  0  0
  7 48  1  0  0  0  0
  7  8  1  0  0  0  0
  8  9  1  0  0  0  0
  8 32  1  0  0  0  0
  9 10  2  0  0  0  0
  9 11  1  0  0  0  0
 11 12  1  0  0  0  0
 11 22  1  0  0  0  0
 12 13  2  0  0  0  0
 13 14  1  0  0  0  0
 13 49  1  0  0  0  0
 14 15  2  0  0  0  0
 15 16  1  0  0  0  0
 15 50  1  0  0  0  0
 16 17  2  0  0  0  0
 17 18  1  0  0  0  0
 17 51  1  0  0  0  0
 18 19  2  0  0  0  0
 18 52  1  0  0  0  0
 19 20  1  0  0  0  0
 19 53  1  0  0  0  0
 20 21  2  0  0  0  0
 20 54  1  0  0  0  0
 12 21  1  0  0  0  0
 16 21  1  0  0  0  0
 22 23  1  0  0  0  0
 22 55  1  0  0  0  0
 22 56  1  0  0  0  0
  8 23  1  0  0  0  0
 23 24  1  0  0  0  0
 23 57  1  0  0  0  0
 24 25  1  0  0  0  0
 24 58  1  0  0  0  0
 24 59  1  0  0  0  0
 25 26  1  0  0  0  0
 25 60  1  0  0  0  0
 26 27  1  0  0  0  0
 27 28  2  0  0  0  0
 27 61  1  0  0  0  0
 28 29  1  0  0  0  0
 29 30  1  0  0  0  0
 29 31  1  0  0  0  0
 30 62  1  0  0  0  0
 30 63  1  0  0  0  0
 30 64  1  0  0  0  0
 26 31  2  0  0  0  0
 31 65  1  0  0  0  0
 32 33  2  0  0  0  0
 33 34  1  0  0  0  0
 33 66  1  0  0  0  0
 34 35  1  0  0  0  0
 34 36  2  0  0  0  0
 36 37  1  0  0  0  0
 36 67  1  0  0  0  0
 37 38  2  0  0  0  0
 37 68  1  0  0  0  0
 32 38  1  0  0  0  0
 38 39  1  0  0  0  0
  6 39  1  0  0  0  0
 39 40  2  0  0  0  0
M  END
$$$$
