obj01
  PyMOL2.5          3D                             0

 66 71  0  0  1  0  0  0  0  0999 V2000
    6.9638    3.8586   22.9389 C   0  0  0  0  0  0  0  0  0  0  0  0
    7.5593    2.7174   23.5966 N   0  0  0  0  0  0  0  0  0  0  0  0
    7.1135    2.3222   24.8076 C   0  0  0  0  0  0  0  0  0  0  0  0
    6.2850    2.9445   25.4576 O   0  0  0  0  0  0  0  0  0  0  0  0
    7.6607    1.0022   25.3614 C   0  0  0  0  0  0  0  0  0  0  0  0
    8.4914    0.2104   24.4780 N   0  0  0  0  0  0  0  0  0  0  0  0
    7.9606   -1.0345   23.9494 C   0  0  0  0  0  0  0  0  0  0  0  0
    8.5957   -1.3961   22.5834 C   0  0  2  0  0  0  0  0  0  0  0  0
    8.1938   -0.3309   21.5323 C   0  0  0  0  0  0  0  0  0  0  0  0
    8.6861    0.7688   21.3640 O   0  0  0  0  0  0  0  0  0  0  0  0
    7.1415   -0.8324   20.7992 N   0  0  0  0  0  0  0  0  0  0  0  0
    6.4599   -0.0459   19.8296 C   0  0  0  0  0  0  0  0  0  0  0  0
    6.8101   -0.1555   18.5084 C   0  0  0  0  0  0  0  0  0  0  0  0
    6.2377    0.5412   17.4941 N   0  0  0  0  0  0  0  0  0  0  0  0
    5.2750    1.3792   17.8042 C   0  0  0  0  0  0  0  0  0  0  0  0
    4.7863    1.5771   19.1294 C   0  0  0  0  0  0  0  0  0  0  0  0
    3.7419    2.4981   19.4279 C   0  0  0  0  0  0  0  0  0  0  0  0
    3.3008    2.6501   20.7159 C   0  0  0  0  0  0  0  0  0  0  0  0
    3.8708    1.8905   21.7651 C   0  0  0  0  0  0  0  0  0  0  0  0
    4.8907    1.0084   21.5040 C   0  0  0  0  0  0  0  0  0  0  0  0
    5.3844    0.8344   20.1801 C   0  0  0  0  0  0  0  0  0  0  0  0
    6.7157   -2.1550   21.2272 C   0  0  0  0  0  0  0  0  0  0  0  0
    7.9642   -2.6758   21.9590 C   0  0  2  0  0  0  0  0  0  0  0  0
    7.8018   -3.9131   22.8819 C   0  0  0  0  0  0  0  0  0  0  0  0
    6.4291   -4.1589   23.4677 C   0  0  0  0  0  0  0  0  0  0  0  0
    5.4228   -4.6981   22.6606 C   0  0  0  0  0  0  0  0  0  0  0  0
    4.1385   -4.9047   23.1481 C   0  0  0  0  0  0  0  0  0  0  0  0
    3.8320   -4.5803   24.4646 C   0  0  0  0  0  0  0  0  0  0  0  0
    4.8263   -4.0601   25.2861 C   0  0  0  0  0  0  0  0  0  0  0  0
    6.1122   -3.8554   24.7914 C   0  0  0  0  0  0  0  0  0  0  0  0
   10.0961   -1.4128   22.7844 C   0  0  0  0  0  0  0  0  0  0  0  0
   10.9409   -2.2790   22.0799 C   0  0  0  0  0  0  0  0  0  0  0  0
   12.3144   -2.1508   22.1916 C   0  0  0  0  0  0  0  0  0  0  0  0
   13.3351   -3.2038   21.2515 Cl  0  0  0  0  0  0  0  0  0  0  0  0
   12.8955   -1.1834   23.0144 C   0  0  0  0  0  0  0  0  0  0  0  0
   12.0643   -0.3394   23.7305 C   0  0  0  0  0  0  0  0  0  0  0  0
   10.6762   -0.4483   23.6260 C   0  0  0  0  0  0  0  0  0  0  0  0
    9.8273    0.5006   24.4251 C   0  0  0  0  0  0  0  0  0  0  0  0
   10.2855    1.4907   24.9803 O   0  0  0  0  0  0  0  0  0  0  0  0
    5.9029    3.6764   22.7373 H   0  0  0  0  0  0  0  0  0  0  0  0
    7.4739    4.0052   21.9857 H   0  0  0  0  0  0  0  0  0  0  0  0
    7.0466    4.7682   23.5421 H   0  0  0  0  0  0  0  0  0  0  0  0
    8.3595    2.2758   23.1642 H   0  0  0  0  0  0  0  0  0  0  0  0
    6.7890    0.4044   25.6435 H   0  0  0  0  0  0  0  0  0  0  0  0
    8.2052    1.2209   26.2868 H   0  0  0  0  0  0  0  0  0  0  0  0
    8.1447   -1.8502   24.6613 H   0  0  0  0  0  0  0  0  0  0  0  0
    6.8796   -0.9241   23.8341 H   0  0  0  0  0  0  0  0  0  0  0  0
    7.6099   -0.8318   18.2168 H   0  0  0  0  0  0  0  0  0  0  0  0
    4.8260    1.9490   16.9880 H   0  0  0  0  0  0  0  0  0  0  0  0
    3.3114    3.0856   18.6175 H   0  0  0  0  0  0  0  0  0  0  0  0
    2.5126    3.3615   20.9512 H   0  0  0  0  0  0  0  0  0  0  0  0
    3.5308    2.0307   22.7902 H   0  0  0  0  0  0  0  0  0  0  0  0
    5.3369    0.4336   22.3122 H   0  0  0  0  0  0  0  0  0  0  0  0
    5.8368   -2.1223   21.8926 H   0  0  0  0  0  0  0  0  0  0  0  0
    6.4491   -2.7626   20.3600 H   0  0  0  0  0  0  0  0  0  0  0  0
    8.6486   -2.9631   21.1551 H   0  0  0  0  0  0  0  0  0  0  0  0
    8.0896   -4.8076   22.3147 H   0  0  0  0  0  0  0  0  0  0  0  0
    8.5411   -3.8443   23.6885 H   0  0  0  0  0  0  0  0  0  0  0  0
    5.6535   -4.9322   21.6243 H   0  0  0  0  0  0  0  0  0  0  0  0
    3.3737   -5.3095   22.4942 H   0  0  0  0  0  0  0  0  0  0  0  0
    2.8306   -4.7438   24.8495 H   0  0  0  0  0  0  0  0  0  0  0  0
    4.6062   -3.8192   26.3215 H   0  0  0  0  0  0  0  0  0  0  0  0
    6.8818   -3.4597   25.4502 H   0  0  0  0  0  0  0  0  0  0  0  0
   10.5331   -3.0602   21.4465 H   0  0  0  0  0  0  0  0  0  0  0  0
   13.9779   -1.0973   23.0711 H   0  0  0  0  0  0  0  0  0  0  0  0
   12.4787    0.4230   24.3826 H   0  0  0  0  0  0  0  0  0  0  0  0
  1  2  1  0  0  0  0
  1 40  1  0  0  0  0
  1 41  1  0  0  0  0
  1 42  1  0  0  0  0
  2  3  1  0  0  0  0
  2 43  1  0  0  0  0
  3  4  2  0  0  0  0
  3  5  1  0  0  0  0
  5  6  1  0  0  0  0
  5 44  1  0  0  0  0
  5 45  1  0  0  0  0
  6  7  1  0  0  0  0
  7 46  1  0  0  0  0
  7 47  1  0  0  0  0
  7  8  1  0  0  0  0
  8  9  1  0  0  0  0
  8 31  1  0  0  0  0
  9 10  2  0  0  0  0
  9 11  1  0  0  0  0
 11 12  1  0  0  0  0
 11 22  1  0  0  0  0
 12 13  2  0  0  0  0
 13 14  1  0  0  0  0
 13 48  1  0  0  0  0
 14 15  2  0  0  0  0
 15 16  1  0  0  0  0
 15 49  1  0  0  0  0
 16 17  2  0  0  0  0
 17 18  1  0  0  0  0
 17 50  1  0  0  0  0
 18 19  2  0  0  0  0
 18 51  1  0  0  0  0
 19 20  1  0  0  0  0
 19 52  1  0  0  0  0
 20 21  2  0  0  0  0
 20 53  1  0  0  0  0
 12 21  1  0  0  0  0
 16 21  1  0  0  0  0
 22 23  1  0  0  0  0
 22 54  1  0  0  0  0
 22 55  1  0  0  0  0
  8 23  1  0  0  0  0
 23 24  1  0  0  0  0
 23 56  1  0  0  0  0
 24 25  1  0  0  0  0
 24 57  1  0  0  0  0
 24 58  1  0  0  0  0
 25 26  2  0  0  0  0
 26 27  1  0  0  0  0
 26 59  1  0  0  0  0
 27 28  2  0  0  0  0
 27 60  1  0  0  0  0
 28 29  1  0  0  0  0
 28 61  1  0  0  0  0
 29 30  2  0  0  0  0
 29 62  1  0  0  0  0
 25 30  1  0  0  0  0
 30 63  1  0  0  0  0
 31 32  2  0  0  0  0
 32 33  1  0  0  0  0
 32 64  1  0  0  0  0
 33 34  1  0  0  0  0
 33 35  2  0  0  0  0
 35 36  1  0  0  0  0
 35 65  1  0  0  0  0
 36 37  2  0  0  0  0
 36 66  1  0  0  0  0
 31 37  1  0  0  0  0
 37 38  1  0  0  0  0
  6 38  1  0  0  0  0
 38 39  2  0  0  0  0
M  END
$$$$
