obj01
  PyMOL2.5          3D                             0

 60 65  0  0  1  0  0  0  0  0999 V2000
    6.1601    3.4561   22.9476 C   0  0  0  0  0  0  0  0  0  0  0  0
    6.8140    2.3346   23.5962 N   0  0  0  0  0  0  0  0  0  0  0  0
    6.3437    1.8935   24.7865 C   0  0  0  0  0  0  0  0  0  0  0  0
    5.4688    2.4679   25.4188 O   0  0  0  0  0  0  0  0  0  0  0  0
    6.9575    0.6190   25.3748 C   0  0  0  0  0  0  0  0  0  0  0  0
    7.8390   -0.1377   24.5181 N   0  0  0  0  0  0  0  0  0  0  0  0
    7.3500   -1.3690   23.9311 C   0  0  0  0  0  0  0  0  0  0  0  0
    8.0155   -1.6830   22.5692 C   0  0  2  0  0  0  0  0  0  0  0  0
    7.5756   -0.6388   21.5162 C   0  0  0  0  0  0  0  0  0  0  0  0
    8.0075    0.4889   21.3693 O   0  0  0  0  0  0  0  0  0  0  0  0
    6.5653   -1.1846   20.7599 N   0  0  0  0  0  0  0  0  0  0  0  0
    5.8826   -0.4191   19.7865 C   0  0  0  0  0  0  0  0  0  0  0  0
    6.2941   -0.4793   18.4805 C   0  0  0  0  0  0  0  0  0  0  0  0
    5.7295    0.2167   17.4611 N   0  0  0  0  0  0  0  0  0  0  0  0
    4.7165    0.9966   17.7680 C   0  0  0  0  0  0  0  0  0  0  0  0
    4.1929    1.1515   19.0864 C   0  0  0  0  0  0  0  0  0  0  0  0
    3.0982    2.0110   19.3664 C   0  0  0  0  0  0  0  0  0  0  0  0
    2.6114    2.1295   20.6389 C   0  0  0  0  0  0  0  0  0  0  0  0
    3.1908    1.3976   21.6972 C   0  0  0  0  0  0  0  0  0  0  0  0
    4.2578    0.5677   21.4587 C   0  0  0  0  0  0  0  0  0  0  0  0
    4.7864    0.4239   20.1416 C   0  0  0  0  0  0  0  0  0  0  0  0
    6.1985   -2.5275   21.1481 C   0  0  0  0  0  0  0  0  0  0  0  0
    7.4152   -2.9838   21.9658 C   0  0  2  0  0  0  0  0  0  0  0  0
    7.0713   -4.1147   22.9430 C   0  0  0  0  0  0  0  0  0  0  0  0
    6.5724   -5.3210   22.2267 C   0  0  0  0  0  0  0  0  0  0  0  0
    5.3526   -5.4817   21.7282 N   0  0  0  0  0  0  0  0  0  0  0  0
    5.3750   -6.6803   21.1545 N   0  0  0  0  0  0  0  0  0  0  0  0
    6.5604   -7.2100   21.3075 N   0  5  0  0  0  0  0  0  0  0  0  0
    7.3341   -6.3704   21.9793 N   0  0  0  0  0  0  0  0  0  0  0  0
    9.5175   -1.6423   22.7892 C   0  0  0  0  0  0  0  0  0  0  0  0
   10.4283   -2.4525   22.0981 C   0  0  0  0  0  0  0  0  0  0  0  0
   11.7908   -2.2632   22.2648 C   0  0  0  0  0  0  0  0  0  0  0  0
   12.8985   -3.2695   21.3735 Cl  0  0  0  0  0  0  0  0  0  0  0  0
   12.3093   -1.2833   23.1080 C   0  0  0  0  0  0  0  0  0  0  0  0
   11.4216   -0.4917   23.8039 C   0  0  0  0  0  0  0  0  0  0  0  0
   10.0468   -0.6794   23.6646 C   0  0  0  0  0  0  0  0  0  0  0  0
    9.1674    0.1883   24.5049 C   0  0  0  0  0  0  0  0  0  0  0  0
    9.6177    1.1416   25.1309 O   0  0  0  0  0  0  0  0  0  0  0  0
    6.1832    4.3513   23.5796 H   0  0  0  0  0  0  0  0  0  0  0  0
    5.1113    3.2203   22.7178 H   0  0  0  0  0  0  0  0  0  0  0  0
    6.6838    3.6750   22.0128 H   0  0  0  0  0  0  0  0  0  0  0  0
    7.4366    1.7646   23.0287 H   0  0  0  0  0  0  0  0  0  0  0  0
    6.1196   -0.0099   25.6925 H   0  0  0  0  0  0  0  0  0  0  0  0
    7.5037    0.9075   26.2765 H   0  0  0  0  0  0  0  0  0  0  0  0
    7.5531   -2.2147   24.6015 H   0  0  0  0  0  0  0  0  0  0  0  0
    6.2645   -1.2894   23.7943 H   0  0  0  0  0  0  0  0  0  0  0  0
    7.1436   -1.1109   18.2256 H   0  0  0  0  0  0  0  0  0  0  0  0
    4.2318    1.5462   16.9596 H   0  0  0  0  0  0  0  0  0  0  0  0
    2.6557    2.5692   18.5484 H   0  0  0  0  0  0  0  0  0  0  0  0
    1.7744    2.7871   20.8514 H   0  0  0  0  0  0  0  0  0  0  0  0
    2.8050    1.5119   22.7075 H   0  0  0  0  0  0  0  0  0  0  0  0
    4.6905    0.0109   22.2850 H   0  0  0  0  0  0  0  0  0  0  0  0
    6.0175   -3.1802   20.2881 H   0  0  0  0  0  0  0  0  0  0  0  0
    5.2868   -2.5400   21.7659 H   0  0  0  0  0  0  0  0  0  0  0  0
    8.1342   -3.3930   21.2551 H   0  0  0  0  0  0  0  0  0  0  0  0
    6.3268   -3.7755   23.6651 H   0  0  0  0  0  0  0  0  0  0  0  0
    7.9497   -4.4468   23.4955 H   0  0  0  0  0  0  0  0  0  0  0  0
   10.1119   -3.2389   21.4219 H   0  0  0  0  0  0  0  0  0  0  0  0
   13.3847   -1.1639   23.2046 H   0  0  0  0  0  0  0  0  0  0  0  0
   11.7807    0.2780   24.4773 H   0  0  0  0  0  0  0  0  0  0  0  0
  1  2  1  0  0  0  0
  1 39  1  0  0  0  0
  1 40  1  0  0  0  0
  1 41  1  0  0  0  0
  2  3  1  0  0  0  0
  2 42  1  0  0  0  0
  3  4  2  0  0  0  0
  3  5  1  0  0  0  0
  5  6  1  0  0  0  0
  5 43  1  0  0  0  0
  5 44  1  0  0  0  0
  6  7  1  0  0  0  0
  7 45  1  0  0  0  0
  7 46  1  0  0  0  0
  7  8  1  0  0  0  0
  8  9  1  0  0  0  0
  8 30  1  0  0  0  0
  9 10  2  0  0  0  0
  9 11  1  0  0  0  0
 11 12  1  0  0  0  0
 11 22  1  0  0  0  0
 12 13  2  0  0  0  0
 13 14  1  0  0  0  0
 13 47  1  0  0  0  0
 14 15  2  0  0  0  0
 15 16  1  0  0  0  0
 15 48  1  0  0  0  0
 16 17  2  0  0  0  0
 17 18  1  0  0  0  0
 17 49  1  0  0  0  0
 18 19  2  0  0  0  0
 18 50  1  0  0  0  0
 19 20  1  0  0  0  0
 19 51  1  0  0  0  0
 20 21  2  0  0  0  0
 20 52  1  0  0  0  0
 12 21  1  0  0  0  0
 16 21  1  0  0  0  0
 22 23  1  0  0  0  0
 22 53  1  0  0  0  0
 22 54  1  0  0  0  0
  8 23  1  0  0  0  0
 23 24  1  0  0  0  0
 23 55  1  0  0  0  0
 24 25  1  0  0  0  0
 24 56  1  0  0  0  0
 24 57  1  0  0  0  0
 25 26  1  0  0  0  0
 26 27  2  0  0  0  0
 27 28  1  0  0  0  0
 28 29  1  0  0  0  0
 25 29  2  0  0  0  0
 30 31  2  0  0  0  0
 31 32  1  0  0  0  0
 31 58  1  0  0  0  0
 32 33  1  0  0  0  0
 32 34  2  0  0  0  0
 34 35  1  0  0  0  0
 34 59  1  0  0  0  0
 35 36  2  0  0  0  0
 35 60  1  0  0  0  0
 30 36  1  0  0  0  0
 36 37  1  0  0  0  0
  6 37  1  0  0  0  0
 37 38  2  0  0  0  0
M  END
$$$$
