obj01
  PyMOL2.5          3D                             0

 60 64  0  0  1  0  0  0  0  0999 V2000
    6.9647    3.8585   22.9384 C   0  0  0  0  0  0  0  0  0  0  0  0
    7.5608    2.7178   23.5961 N   0  0  0  0  0  0  0  0  0  0  0  0
    7.1156    2.3223   24.8071 C   0  0  0  0  0  0  0  0  0  0  0  0
    6.2869    2.9442   25.4571 O   0  0  0  0  0  0  0  0  0  0  0  0
    7.6633    1.0025   25.3611 C   0  0  0  0  0  0  0  0  0  0  0  0
    8.4946    0.2105   24.4778 N   0  0  0  0  0  0  0  0  0  0  0  0
    7.9640   -1.0341   23.9480 C   0  0  0  0  0  0  0  0  0  0  0  0
    8.6005   -1.3956   22.5818 C   0  0  2  0  0  0  0  0  0  0  0  0
    8.1945   -0.3319   21.5303 C   0  0  0  0  0  0  0  0  0  0  0  0
    8.6856    0.7677   21.3611 O   0  0  0  0  0  0  0  0  0  0  0  0
    7.1352   -0.8287   20.8027 N   0  0  0  0  0  0  0  0  0  0  0  0
    6.4584   -0.0445   19.8285 C   0  0  0  0  0  0  0  0  0  0  0  0
    6.8104   -0.1559   18.5080 C   0  0  0  0  0  0  0  0  0  0  0  0
    6.2386    0.5411   17.4933 N   0  0  0  0  0  0  0  0  0  0  0  0
    5.2755    1.3792   17.8036 C   0  0  0  0  0  0  0  0  0  0  0  0
    4.7863    1.5772   19.1288 C   0  0  0  0  0  0  0  0  0  0  0  0
    3.7420    2.4977   19.4280 C   0  0  0  0  0  0  0  0  0  0  0  0
    3.3015    2.6494   20.7162 C   0  0  0  0  0  0  0  0  0  0  0  0
    3.8719    1.8901   21.7653 C   0  0  0  0  0  0  0  0  0  0  0  0
    4.8917    1.0083   21.5039 C   0  0  0  0  0  0  0  0  0  0  0  0
    5.3840    0.8349   20.1794 C   0  0  0  0  0  0  0  0  0  0  0  0
    6.7195   -2.1551   21.2240 C   0  0  0  0  0  0  0  0  0  0  0  0
    7.9609   -2.6710   21.9673 C   0  0  2  0  0  0  0  0  0  0  0  0
    7.6612   -3.8222   22.9132 C   0  0  0  0  0  0  0  0  0  0  0  0
    8.8306   -4.2146   23.5939 O   0  0  0  0  0  0  0  0  0  0  0  0
    8.5612   -5.2236   24.5377 C   0  0  0  0  0  0  0  0  0  0  0  0
   10.1000   -1.4127   22.7838 C   0  0  0  0  0  0  0  0  0  0  0  0
   10.9439   -2.2715   22.0698 C   0  0  0  0  0  0  0  0  0  0  0  0
   12.3169   -2.1465   22.1855 C   0  0  0  0  0  0  0  0  0  0  0  0
   13.3385   -3.2011   21.2490 Cl  0  0  0  0  0  0  0  0  0  0  0  0
   12.8980   -1.1816   23.0123 C   0  0  0  0  0  0  0  0  0  0  0  0
   12.0668   -0.3383   23.7289 C   0  0  0  0  0  0  0  0  0  0  0  0
   10.6791   -0.4493   23.6271 C   0  0  0  0  0  0  0  0  0  0  0  0
    9.8307    0.5006   24.4243 C   0  0  0  0  0  0  0  0  0  0  0  0
   10.2874    1.4917   24.9782 O   0  0  0  0  0  0  0  0  0  0  0  0
    7.0472    4.7681   23.5417 H   0  0  0  0  0  0  0  0  0  0  0  0
    7.4747    4.0054   21.9851 H   0  0  0  0  0  0  0  0  0  0  0  0
    5.9038    3.6759   22.7370 H   0  0  0  0  0  0  0  0  0  0  0  0
    8.3609    2.2763   23.1628 H   0  0  0  0  0  0  0  0  0  0  0  0
    6.7911    0.4054   25.6436 H   0  0  0  0  0  0  0  0  0  0  0  0
    8.2084    1.2213   26.2861 H   0  0  0  0  0  0  0  0  0  0  0  0
    6.8831   -0.9130   23.8230 H   0  0  0  0  0  0  0  0  0  0  0  0
    8.1407   -1.8517   24.6600 H   0  0  0  0  0  0  0  0  0  0  0  0
    7.6105   -0.8321   18.2168 H   0  0  0  0  0  0  0  0  0  0  0  0
    4.8261    1.9488   16.9878 H   0  0  0  0  0  0  0  0  0  0  0  0
    3.3113    3.0852   18.6177 H   0  0  0  0  0  0  0  0  0  0  0  0
    2.5132    3.3605   20.9518 H   0  0  0  0  0  0  0  0  0  0  0  0
    3.5321    2.0299   22.7905 H   0  0  0  0  0  0  0  0  0  0  0  0
    5.3379    0.4326   22.3114 H   0  0  0  0  0  0  0  0  0  0  0  0
    5.8401   -2.1427   21.8931 H   0  0  0  0  0  0  0  0  0  0  0  0
    6.4590   -2.7652   20.3565 H   0  0  0  0  0  0  0  0  0  0  0  0
    8.6476   -3.0399   21.2055 H   0  0  0  0  0  0  0  0  0  0  0  0
    6.8945   -3.5126   23.6381 H   0  0  0  0  0  0  0  0  0  0  0  0
    7.2484   -4.6796   22.3557 H   0  0  0  0  0  0  0  0  0  0  0  0
    9.5049   -5.5201   25.0032 H   0  0  0  0  0  0  0  0  0  0  0  0
    7.8719   -4.8788   25.3253 H   0  0  0  0  0  0  0  0  0  0  0  0
    8.1035   -6.1081   24.0684 H   0  0  0  0  0  0  0  0  0  0  0  0
   10.5335   -3.0533   21.4386 H   0  0  0  0  0  0  0  0  0  0  0  0
   13.9804   -1.0954   23.0691 H   0  0  0  0  0  0  0  0  0  0  0  0
   12.4810    0.4249   24.3804 H   0  0  0  0  0  0  0  0  0  0  0  0
  1  2  1  0  0  0  0
  1 36  1  0  0  0  0
  1 37  1  0  0  0  0
  1 38  1  0  0  0  0
  2  3  1  0  0  0  0
  2 39  1  0  0  0  0
  3  4  2  0  0  0  0
  3  5  1  0  0  0  0
  5  6  1  0  0  0  0
  5 40  1  0  0  0  0
  5 41  1  0  0  0  0
  6  7  1  0  0  0  0
  7 42  1  0  0  0  0
  7 43  1  0  0  0  0
  7  8  1  0  0  0  0
  8  9  1  0  0  0  0
  8 27  1  0  0  0  0
  9 10  2  0  0  0  0
  9 11  1  0  0  0  0
 11 12  1  0  0  0  0
 11 22  1  0  0  0  0
 12 13  2  0  0  0  0
 13 14  1  0  0  0  0
 13 44  1  0  0  0  0
 14 15  2  0  0  0  0
 15 16  1  0  0  0  0
 15 45  1  0  0  0  0
 16 17  2  0  0  0  0
 17 18  1  0  0  0  0
 17 46  1  0  0  0  0
 18 19  2  0  0  0  0
 18 47  1  0  0  0  0
 19 20  1  0  0  0  0
 19 48  1  0  0  0  0
 20 21  2  0  0  0  0
 20 49  1  0  0  0  0
 12 21  1  0  0  0  0
 16 21  1  0  0  0  0
 22 23  1  0  0  0  0
 22 50  1  0  0  0  0
 22 51  1  0  0  0  0
  8 23  1  0  0  0  0
 23 24  1  0  0  0  0
 23 52  1  0  0  0  0
 24 25  1  0  0  0  0
 24 53  1  0  0  0  0
 24 54  1  0  0  0  0
 25 26  1  0  0  0  0
 26 55  1  0  0  0  0
 26 56  1  0  0  0  0
 26 57  1  0  0  0  0
 27 28  2  0  0  0  0
 28 29  1  0  0  0  0
 28 58  1  0  0  0  0
 29 30  1  0  0  0  0
 29 31  2  0  0  0  0
 31 32  1  0  0  0  0
 31 59  1  0  0  0  0
 32 33  2  0  0  0  0
 32 60  1  0  0  0  0
 27 33  1  0  0  0  0
 33 34  1  0  0  0  0
  6 34  1  0  0  0  0
 34 35  2  0  0  0  0
M  END
$$$$
