obj01
  PyMOL2.5          3D                             0

 62 67  0  0  1  0  0  0  0  0999 V2000
    8.9845    3.7353   27.4974 C   0  0  0  0  0  0  0  0  0  0  0  0
    7.5215    3.5936   27.1019 C   0  0  0  0  0  0  0  0  0  0  0  0
    7.3118    3.5078   25.6626 N   0  0  0  0  0  0  0  0  0  0  0  0
    7.0666    4.6153   24.9421 N   0  0  0  0  0  0  0  0  0  0  0  0
    6.9741    4.1922   23.6856 C   0  0  0  0  0  0  0  0  0  0  0  0
    7.1873    2.8076   23.5849 C   0  0  0  0  0  0  0  0  0  0  0  0
    7.4244    2.4045   24.8778 C   0  0  0  0  0  0  0  0  0  0  0  0
    7.6679    1.0141   25.3783 C   0  0  0  0  0  0  0  0  0  0  0  0
    8.4855    0.2323   24.4623 N   0  0  0  0  0  0  0  0  0  0  0  0
    7.9645   -1.0217   23.9462 C   0  0  0  0  0  0  0  0  0  0  0  0
    8.6035   -1.3866   22.5817 C   0  0  2  0  0  0  0  0  0  0  0  0
    8.1988   -0.3260   21.5262 C   0  0  0  0  0  0  0  0  0  0  0  0
    8.6958    0.7646   21.3441 O   0  0  0  0  0  0  0  0  0  0  0  0
    7.1352   -0.8238   20.8047 N   0  0  0  0  0  0  0  0  0  0  0  0
    6.4570   -0.0462   19.8266 C   0  0  0  0  0  0  0  0  0  0  0  0
    6.8120   -0.1542   18.5070 C   0  0  0  0  0  0  0  0  0  0  0  0
    6.2385    0.5431   17.4932 N   0  0  0  0  0  0  0  0  0  0  0  0
    5.2749    1.3784   17.8050 C   0  0  0  0  0  0  0  0  0  0  0  0
    4.7860    1.5757   19.1297 C   0  0  0  0  0  0  0  0  0  0  0  0
    3.7420    2.4962   19.4306 C   0  0  0  0  0  0  0  0  0  0  0  0
    3.3069    2.6538   20.7179 C   0  0  0  0  0  0  0  0  0  0  0  0
    3.8835    1.9018   21.7673 C   0  0  0  0  0  0  0  0  0  0  0  0
    4.8889    1.0035   21.5007 C   0  0  0  0  0  0  0  0  0  0  0  0
    5.3795    0.8294   20.1776 C   0  0  0  0  0  0  0  0  0  0  0  0
    6.7236   -2.1491   21.2280 C   0  0  0  0  0  0  0  0  0  0  0  0
    7.9642   -2.6630   21.9711 C   0  0  2  0  0  0  0  0  0  0  0  0
    7.6896   -3.8067   22.9379 C   0  0  0  0  0  0  0  0  0  0  0  0
   10.1034   -1.4011   22.7824 C   0  0  0  0  0  0  0  0  0  0  0  0
   10.9468   -2.2687   22.0806 C   0  0  0  0  0  0  0  0  0  0  0  0
   12.3141   -2.1320   22.2069 C   0  0  0  0  0  0  0  0  0  0  0  0
   13.1055   -2.9573   21.5004 F   0  0  0  0  0  0  0  0  0  0  0  0
   12.9049   -1.1660   23.0170 C   0  0  0  0  0  0  0  0  0  0  0  0
   12.0705   -0.3213   23.7253 C   0  0  0  0  0  0  0  0  0  0  0  0
   10.6808   -0.4293   23.6177 C   0  0  0  0  0  0  0  0  0  0  0  0
    9.8223    0.5201   24.4098 C   0  0  0  0  0  0  0  0  0  0  0  0
   10.2970    1.4844   24.9917 O   0  0  0  0  0  0  0  0  0  0  0  0
    9.4025    4.6327   27.0398 H   0  0  0  0  0  0  0  0  0  0  0  0
    9.5712    2.8727   27.1660 H   0  0  0  0  0  0  0  0  0  0  0  0
    9.0803    3.8321   28.5844 H   0  0  0  0  0  0  0  0  0  0  0  0
    6.9380    4.4432   27.4538 H   0  0  0  0  0  0  0  0  0  0  0  0
    7.0908    2.7051   27.5668 H   0  0  0  0  0  0  0  0  0  0  0  0
    6.7541    4.8872   22.8874 H   0  0  0  0  0  0  0  0  0  0  0  0
    7.1838    2.1725   22.7052 H   0  0  0  0  0  0  0  0  0  0  0  0
    8.1235    1.0155   26.3795 H   0  0  0  0  0  0  0  0  0  0  0  0
    6.7004    0.5036   25.4579 H   0  0  0  0  0  0  0  0  0  0  0  0
    8.1459   -1.8341   24.6672 H   0  0  0  0  0  0  0  0  0  0  0  0
    6.8822   -0.9136   23.8210 H   0  0  0  0  0  0  0  0  0  0  0  0
    7.6144   -0.8299   18.2188 H   0  0  0  0  0  0  0  0  0  0  0  0
    4.8234    1.9475   16.9893 H   0  0  0  0  0  0  0  0  0  0  0  0
    3.3087    3.0822   18.6207 H   0  0  0  0  0  0  0  0  0  0  0  0
    2.5132    3.3608   20.9487 H   0  0  0  0  0  0  0  0  0  0  0  0
    3.5303    2.0283   22.7867 H   0  0  0  0  0  0  0  0  0  0  0  0
    5.3320    0.4272   22.3089 H   0  0  0  0  0  0  0  0  0  0  0  0
    6.4682   -2.7626   20.3616 H   0  0  0  0  0  0  0  0  0  0  0  0
    5.8478   -2.1353   21.8998 H   0  0  0  0  0  0  0  0  0  0  0  0
    8.6410   -3.0267   21.1944 H   0  0  0  0  0  0  0  0  0  0  0  0
    7.3553   -4.7050   22.4097 H   0  0  0  0  0  0  0  0  0  0  0  0
    8.5825   -4.0703   23.5142 H   0  0  0  0  0  0  0  0  0  0  0  0
    6.9110   -3.5374   23.6581 H   0  0  0  0  0  0  0  0  0  0  0  0
   10.5599   -3.0513   21.4355 H   0  0  0  0  0  0  0  0  0  0  0  0
   13.9891   -1.0910   23.0649 H   0  0  0  0  0  0  0  0  0  0  0  0
   12.4912    0.4387   24.3741 H   0  0  0  0  0  0  0  0  0  0  0  0
  1  2  1  0  0  0  0
  1 37  1  0  0  0  0
  1 38  1  0  0  0  0
  1 39  1  0  0  0  0
  2  3  1  0  0  0  0
  2 40  1  0  0  0  0
  2 41  1  0  0  0  0
  3  4  1  0  0  0  0
  4  5  2  0  0  0  0
  5  6  1  0  0  0  0
  5 42  1  0  0  0  0
  6  7  2  0  0  0  0
  6 43  1  0  0  0  0
  3  7  1  0  0  0  0
  7  8  1  0  0  0  0
  8  9  1  0  0  0  0
  8 44  1  0  0  0  0
  8 45  1  0  0  0  0
  9 10  1  0  0  0  0
 10 46  1  0  0  0  0
 10 47  1  0  0  0  0
 10 11  1  0  0  0  0
 11 12  1  0  0  0  0
 11 28  1  0  0  0  0
 12 13  2  0  0  0  0
 12 14  1  0  0  0  0
 14 15  1  0  0  0  0
 14 25  1  0  0  0  0
 15 16  2  0  0  0  0
 16 17  1  0  0  0  0
 16 48  1  0  0  0  0
 17 18  2  0  0  0  0
 18 19  1  0  0  0  0
 18 49  1  0  0  0  0
 19 20  2  0  0  0  0
 20 21  1  0  0  0  0
 20 50  1  0  0  0  0
 21 22  2  0  0  0  0
 21 51  1  0  0  0  0
 22 23  1  0  0  0  0
 22 52  1  0  0  0  0
 23 24  2  0  0  0  0
 23 53  1  0  0  0  0
 15 24  1  0  0  0  0
 19 24  1  0  0  0  0
 25 26  1  0  0  0  0
 25 54  1  0  0  0  0
 25 55  1  0  0  0  0
 11 26  1  0  0  0  0
 26 27  1  0  0  0  0
 26 56  1  0  0  0  0
 27 57  1  0  0  0  0
 27 58  1  0  0  0  0
 27 59  1  0  0  0  0
 28 29  2  0  0  0  0
 29 30  1  0  0  0  0
 29 60  1  0  0  0  0
 30 31  1  0  0  0  0
 30 32  2  0  0  0  0
 32 33  1  0  0  0  0
 32 61  1  0  0  0  0
 33 34  2  0  0  0  0
 33 62  1  0  0  0  0
 28 34  1  0  0  0  0
 34 35  1  0  0  0  0
  9 35  1  0  0  0  0
 35 36  2  0  0  0  0
M  END
$$$$
