obj01
  PyMOL2.5          3D                             0

 31 36  0  0  1  0  0  0  0  0999 V2000
    8.6838    1.9899   21.0332 O   0  0  0  0  0  0  0  0  0  0  0  0
    8.6407    0.8979   21.5777 C   0  0  0  0  0  0  0  0  0  0  0  0
    7.7595   -0.2262   21.0397 C   0  0  0  0  0  0  0  0  0  0  0  0
    6.8576    0.2662   19.9595 C   0  0  0  0  0  0  0  0  0  0  0  0
    7.1724    0.0454   18.6451 C   0  0  0  0  0  0  0  0  0  0  0  0
    6.4709    0.5064   17.5774 N   0  0  0  0  0  0  0  0  0  0  0  0
    5.4106    1.2328   17.8566 C   0  0  0  0  0  0  0  0  0  0  0  0
    4.9778    1.5629   19.1719 C   0  0  0  0  0  0  0  0  0  0  0  0
    3.8329    2.3622   19.4045 C   0  0  0  0  0  0  0  0  0  0  0  0
    3.4469    2.6746   20.6810 C   0  0  0  0  0  0  0  0  0  0  0  0
    4.1953    2.2012   21.7812 C   0  0  0  0  0  0  0  0  0  0  0  0
    5.3088    1.4248   21.5821 C   0  0  0  0  0  0  0  0  0  0  0  0
    5.7266    1.0769   20.2661 C   0  0  0  0  0  0  0  0  0  0  0  0
    9.3825    0.6119   22.6982 N   0  0  0  0  0  0  0  0  0  0  0  0
    9.4749   -0.7046   23.3383 C   0  0  0  0  0  0  0  0  0  0  0  0
    8.8825   -0.7891   24.7388 C   0  0  0  0  0  0  0  0  0  0  0  0
    7.5778   -0.3749   25.0169 C   0  0  0  0  0  0  0  0  0  0  0  0
    7.0532   -0.4740   26.3037 C   0  0  0  0  0  0  0  0  0  0  0  0
    7.8290   -0.9441   27.3569 C   0  0  0  0  0  0  0  0  0  0  0  0
    9.1281   -1.3456   27.0791 C   0  0  0  0  0  0  0  0  0  0  0  0
   10.1575   -1.8653   28.3840 Cl  0  0  0  0  0  0  0  0  0  0  0  0
    9.6418   -1.3169   25.7863 C   0  0  0  0  0  0  0  0  0  0  0  0
   10.0670    1.7318   23.2871 C   0  0  2  0  0  0  0  0  0  0  0  0
    9.2259    2.7918   24.0347 C   0  0  0  0  0  0  0  0  0  0  0  0
   10.3527    3.6949   24.5017 N   0  3  1  0  0  0  0  0  0  0  0  0
   10.3544    4.1278   25.9052 C   0  0  0  0  0  0  0  0  0  0  0  0
    9.4754    5.2687   26.3118 C   0  0  0  0  0  0  0  0  0  0  0  0
   10.9707    5.4516   26.2523 C   0  0  0  0  0  0  0  0  0  0  0  0
   11.5419    2.8945   24.0015 C   0  0  2  0  0  0  0  0  0  0  0  0
   11.1101    2.6107   22.5618 C   0  0  0  0  0  0  0  0  0  0  0  0
   11.1291    1.4693   24.3530 C   0  0  0  0  0  0  0  0  0  0  0  0
  1  2  2  0  0  0  0
  2  3  1  0  0  0  0
  2 14  1  0  0  0  0
  3  4  1  0  0  0  0
  4  5  2  0  0  0  0
  5  6  1  0  0  0  0
  6  7  2  0  0  0  0
  7  8  1  0  0  0  0
  8  9  2  0  0  0  0
  9 10  1  0  0  0  0
 10 11  2  0  0  0  0
 11 12  1  0  0  0  0
 12 13  2  0  0  0  0
  4 13  1  0  0  0  0
  8 13  1  0  0  0  0
 14 15  1  0  0  0  0
 15 16  1  0  0  0  0
 16 17  2  0  0  0  0
 17 18  1  0  0  0  0
 18 19  2  0  0  0  0
 19 20  1  0  0  0  0
 20 21  1  0  0  0  0
 20 22  2  0  0  0  0
 16 22  1  0  0  0  0
 14 23  1  0  0  0  0
 23 24  1  0  0  0  0
 24 25  1  0  0  0  0
 25 26  1  0  0  0  0
 25 29  1  0  0  0  0
 26 27  1  0  0  0  0
 27 28  1  0  0  0  0
 26 28  1  0  0  0  0
 29 30  1  0  0  0  0
 29 31  1  0  0  0  0
 23 30  1  0  0  0  0
 23 31  1  0  0  0  0
M  END
$$$$
