
     RDKit          3D

 41 47  0  0  0  0  0  0  0  0999 V2000
    9.0794    4.1775   23.8598 O   0  0  0  0  0  0  0  0  0  0  0  0
    8.9513    2.9736   23.6989 C   0  0  0  0  0  0  0  0  0  0  0  0
   10.0532    2.1216   23.1610 C   0  0  0  0  0  0  0  0  0  0  0  0
   11.3376    2.6526   23.1720 C   0  0  0  0  0  0  0  0  0  0  0  0
   12.4046    1.9136   22.6936 C   0  0  0  0  0  0  0  0  0  0  0  0
   12.1384    0.6661   22.1313 C   0  0  0  0  0  0  0  0  0  0  0  0
   13.3985   -0.3329   21.4642 Cl  0  0  0  0  0  0  0  0  0  0  0  0
   10.8555    0.1671   22.0360 C   0  0  0  0  0  0  0  0  0  0  0  0
    9.7924    0.8548   22.6290 C   0  0  0  0  0  0  0  0  0  0  0  0
    8.3848    0.2952   22.6734 C   0  0  1  0  0  0  0  0  0  0  0  0
    7.7119    0.8531   23.9665 C   0  0  0  0  0  0  0  0  0  0  0  0
    7.7939    2.3070   24.0033 N   0  0  0  0  0  0  0  0  0  0  0  0
    6.6874    3.0887   24.5142 C   0  0  0  0  0  0  0  0  0  0  0  0
    6.5664    3.0828   26.0081 C   0  0  0  0  0  0  0  0  0  0  0  0
    6.9807    3.9515   26.8696 N   0  0  0  0  0  0  0  0  0  0  0  0
    6.6086    3.4772   28.1245 N   0  0  0  0  0  0  0  0  0  0  0  0
    5.9872    2.3722   27.9091 C   0  0  0  0  0  0  0  0  0  0  0  0
    5.9154    2.0466   26.5988 O   0  0  0  0  0  0  0  0  0  0  0  0
    7.5926    0.7467   21.4266 C   0  0  0  0  0  0  0  0  0  0  0  0
    7.5999    1.8321   20.8870 O   0  0  0  0  0  0  0  0  0  0  0  0
    6.8431   -0.3196   20.9828 N   0  0  0  0  0  0  0  0  0  0  0  0
    5.8882   -0.1665   19.9615 C   0  0  0  0  0  0  0  0  0  0  0  0
    6.0825   -0.7893   18.7569 C   0  0  0  0  0  0  0  0  0  0  0  0
    5.2737   -0.6447   17.6823 N   0  0  0  0  0  0  0  0  0  0  0  0
    4.2152    0.1163   17.8346 C   0  0  0  0  0  0  0  0  0  0  0  0
    3.8694    0.7745   19.0480 C   0  0  0  0  0  0  0  0  0  0  0  0
    2.6964    1.5631   19.1583 C   0  0  0  0  0  0  0  0  0  0  0  0
    2.3531    2.1390   20.3485 C   0  0  0  0  0  0  0  0  0  0  0  0
    3.1877    1.9868   21.4777 C   0  0  0  0  0  0  0  0  0  0  0  0
    4.3452    1.2575   21.3891 C   0  0  0  0  0  0  0  0  0  0  0  0
    4.7184    0.6291   20.1638 C   0  0  0  0  0  0  0  0  0  0  0  0
    7.0042   -1.5303   21.7482 C   0  0  0  0  0  0  0  0  0  0  0  0
    8.2816   -1.2511   22.5500 C   0  0  2  0  0  0  0  0  0  0  0  0
    8.3273   -2.0698   23.8472 C   0  0  0  0  0  0  0  0  0  0  0  0
    8.3784   -3.4985   23.5901 N   0  0  0  0  0  0  0  0  0  0  0  0
    7.3097   -4.3188   23.5962 C   0  0  0  0  0  0  0  0  0  0  0  0
    7.5469   -5.6010   23.2306 N   0  0  0  0  0  0  0  0  0  0  0  0
    6.4736   -6.3680   23.2272 C   0  0  0  0  0  0  0  0  0  0  0  0
    5.2270   -6.0103   23.5534 N   0  0  0  0  0  0  0  0  0  0  0  0
    5.1220   -4.7343   23.9146 C   0  0  0  0  0  0  0  0  0  0  0  0
    6.1002   -3.8365   23.9549 N   0  0  0  0  0  0  0  0  0  0  0  0
  1  2  2  0
  2  3  1  0
  3  4  2  0
  4  5  1  0
  5  6  2  0
  6  7  1  0
  6  8  1  0
  8  9  2  0
  9 10  1  0
 10 11  1  1
 11 12  1  0
 12 13  1  0
 13 14  1  0
 14 15  2  0
 15 16  1  0
 16 17  2  0
 17 18  1  0
 10 19  1  0
 19 20  2  0
 19 21  1  0
 21 22  1  0
 22 23  2  0
 23 24  1  0
 24 25  2  0
 25 26  1  0
 26 27  2  0
 27 28  1  0
 28 29  2  0
 29 30  1  0
 30 31  2  0
 21 32  1  0
 32 33  1  0
 33 34  1  1
 34 35  1  0
 35 36  1  0
 36 37  2  0
 37 38  1  0
 38 39  2  0
 39 40  1  0
 40 41  2  0
 12  2  1  0
 18 14  1  0
 31 22  1  0
 41 36  1  0
  9  3  1  0
 33 10  1  0
 31 26  1  0
M  END
>  <cnnaffinities>  (1) 
[6.69447, 6.72855, 6.73273, 6.74796, 6.95049, 6.74132, 6.73952, 6.66525]

>  <score>  (1) 
6.69447

>  <index>  (1) 
0

>  <Smiles>  (1) 
O=C1c2c(c(c(Cl)c(c2[C@@]2(C(N1C(c1nnc(o1)[H])([H])[H])([H])[H])C(=O)N(c1c(nc(c3c(c(c(c(c13)[H])[H])[H])[H])[H])[H])C([C@@]2(C(N(c1nc(nc(n1)[H])[H])[H])([H])[H])[H])([H])[H])[H])[H])[H]

>  <h>  (1) 
<NA>

>  <Training>  (1) 
True

>  <Success>  (1) 
True

>  <enamine_searched>  (1) 
False

>  <enamine_id>  (1) 
nan

$$$$

     RDKit          3D

 51 54  0  0  0  0  0  0  0  0999 V2000
    6.0005   -5.2136   26.6716 C   0  0  0  0  0  0  0  0  0  0  0  0
    6.7043   -5.1317   25.4528 O   0  0  0  0  0  0  0  0  0  0  0  0
    6.8067   -3.9034   24.8748 C   0  0  0  0  0  0  0  0  0  0  0  0
    6.1368   -2.7608   25.3108 C   0  0  0  0  0  0  0  0  0  0  0  0
    6.3881   -1.5379   24.6873 C   0  0  0  0  0  0  0  0  0  0  0  0
    7.2941   -1.4460   23.6367 C   0  0  0  0  0  0  0  0  0  0  0  0
    7.6115   -0.1703   23.0734 N   0  0  0  0  0  0  0  0  0  0  0  0
    8.4330    0.7638   23.8334 C   0  0  0  0  0  0  0  0  0  0  0  0
    9.9259    0.6940   23.5267 C   0  0  0  0  0  0  0  0  0  0  0  0
   10.7351    1.8015   23.7862 C   0  0  0  0  0  0  0  0  0  0  0  0
   12.0995    1.7576   23.5085 C   0  0  0  0  0  0  0  0  0  0  0  0
   12.6773    0.6164   22.9599 C   0  0  0  0  0  0  0  0  0  0  0  0
   11.8704   -0.4893   22.7272 C   0  0  0  0  0  0  0  0  0  0  0  0
   12.5592   -1.9395   22.0433 Cl  0  0  0  0  0  0  0  0  0  0  0  0
   10.5132   -0.4674   23.0228 C   0  0  0  0  0  0  0  0  0  0  0  0
    7.3235    0.1551   21.7655 C   0  0  0  0  0  0  0  0  0  0  0  0
    7.7537    1.1619   21.2322 O   0  0  0  0  0  0  0  0  0  0  0  0
    6.4008   -0.8242   21.0256 C   0  0  0  0  0  0  0  0  0  0  0  0
    5.7544   -0.1894   19.8359 C   0  0  0  0  0  0  0  0  0  0  0  0
    6.2230   -0.4245   18.5798 C   0  0  0  0  0  0  0  0  0  0  0  0
    5.7572    0.1531   17.4398 N   0  0  0  0  0  0  0  0  0  0  0  0
    4.7761    1.0141   17.5768 C   0  0  0  0  0  0  0  0  0  0  0  0
    4.1871    1.3693   18.8250 C   0  0  0  0  0  0  0  0  0  0  0  0
    3.1405    2.3239   18.9450 C   0  0  0  0  0  0  0  0  0  0  0  0
    2.6313    2.6297   20.1767 C   0  0  0  0  0  0  0  0  0  0  0  0
    3.1369    2.0064   21.3356 C   0  0  0  0  0  0  0  0  0  0  0  0
    4.1463    1.0835   21.2507 C   0  0  0  0  0  0  0  0  0  0  0  0
    4.6964    0.7466   19.9898 C   0  0  0  0  0  0  0  0  0  0  0  0
    7.8640   -2.6213   23.1363 C   0  0  0  0  0  0  0  0  0  0  0  0
    7.6465   -3.8346   23.7617 C   0  0  0  0  0  0  0  0  0  0  0  0
    6.1216   -6.2364   27.0320 H   0  0  0  0  0  0  0  0  0  0  0  0
    4.9314   -5.0037   26.5307 H   0  0  0  0  0  0  0  0  0  0  0  0
    6.4155   -4.5216   27.4162 H   0  0  0  0  0  0  0  0  0  0  0  0
    5.4244   -2.7964   26.1295 H   0  0  0  0  0  0  0  0  0  0  0  0
    5.8787   -0.6382   25.0276 H   0  0  0  0  0  0  0  0  0  0  0  0
    8.0643    1.7736   23.6220 H   0  0  0  0  0  0  0  0  0  0  0  0
    8.2636    0.5524   24.8975 H   0  0  0  0  0  0  0  0  0  0  0  0
   10.2971    2.7058   24.2117 H   0  0  0  0  0  0  0  0  0  0  0  0
   12.7209    2.6238   23.7243 H   0  0  0  0  0  0  0  0  0  0  0  0
   13.7368    0.5775   22.7246 H   0  0  0  0  0  0  0  0  0  0  0  0
    9.9354   -1.3723   22.8685 H   0  0  0  0  0  0  0  0  0  0  0  0
    5.6534   -1.2244   21.7203 H   0  0  0  0  0  0  0  0  0  0  0  0
    7.0100   -1.6791   20.7041 H   0  0  0  0  0  0  0  0  0  0  0  0
    7.0451   -1.1300   18.4520 H   0  0  0  0  0  0  0  0  0  0  0  0
    4.4065    1.4861   16.6597 H   0  0  0  0  0  0  0  0  0  0  0  0
    2.7605    2.8155   18.0499 H   0  0  0  0  0  0  0  0  0  0  0  0
    1.8367    3.3668   20.2651 H   0  0  0  0  0  0  0  0  0  0  0  0
    2.7341    2.2660   22.3061 H   0  0  0  0  0  0  0  0  0  0  0  0
    4.5515    0.6120   22.1401 H   0  0  0  0  0  0  0  0  0  0  0  0
    8.4901   -2.5994   22.2466 H   0  0  0  0  0  0  0  0  0  0  0  0
    8.1463   -4.7385   23.4300 H   0  0  0  0  0  0  0  0  0  0  0  0
  1  2  1  0
  2  3  1  0
  3  4  2  0
  4  5  1  0
  5  6  2  0
  6  7  1  0
  7  8  1  0
  8  9  1  0
  9 10  2  0
 10 11  1  0
 11 12  2  0
 12 13  1  0
 13 14  1  0
 13 15  2  0
  7 16  1  0
 16 17  2  0
 16 18  1  0
 18 19  1  0
 19 20  2  0
 20 21  1  0
 21 22  2  0
 22 23  1  0
 23 24  2  0
 24 25  1  0
 25 26  2  0
 26 27  1  0
 27 28  2  0
  6 29  1  0
 29 30  2  0
 30  3  1  0
 15  9  1  0
 28 19  1  0
 28 23  1  0
  1 31  1  0
  1 32  1  0
  1 33  1  0
  4 34  1  0
  5 35  1  0
  8 36  1  0
  8 37  1  0
 10 38  1  0
 11 39  1  0
 12 40  1  0
 15 41  1  0
 18 42  1  0
 18 43  1  0
 20 44  1  0
 22 45  1  0
 24 46  1  0
 25 47  1  0
 26 48  1  0
 27 49  1  0
 29 50  1  0
 30 51  1  0
M  END
>  <RMSD>  (2) 
0.0444333966673781

$$$$

     RDKit          3D

 66 71  0  0  0  0  0  0  0  0999 V2000
   -6.7713    2.6222  -23.2014 C   0  0  0  0  0  0  0  0  0  0  0  0
   -7.3422    1.4427  -23.8269 N   0  0  0  0  0  0  0  0  0  0  0  0
   -6.8497    1.0158  -25.0115 C   0  0  0  0  0  0  0  0  0  0  0  0
   -6.0292    1.6479  -25.6672 O   0  0  0  0  0  0  0  0  0  0  0  0
   -7.3588   -0.3214  -25.5671 C   0  0  0  0  0  0  0  0  0  0  0  0
   -8.1641   -1.1415  -24.6902 N   0  0  0  0  0  0  0  0  0  0  0  0
   -7.5739   -2.3302  -24.0936 C   0  0  0  0  0  0  0  0  0  0  0  0
   -8.2139   -2.6652  -22.7205 C   0  0  2  0  0  0  0  0  0  0  0  0
   -7.8531   -1.5516  -21.7065 C   0  0  0  0  0  0  0  0  0  0  0  0
   -8.3791   -0.4611  -21.5866 O   0  0  0  0  0  0  0  0  0  0  0  0
   -6.7941   -1.9909  -20.9487 N   0  0  0  0  0  0  0  0  0  0  0  0
   -6.1669   -1.1585  -19.9919 C   0  0  0  0  0  0  0  0  0  0  0  0
   -6.5463   -1.2397  -18.6775 C   0  0  0  0  0  0  0  0  0  0  0  0
   -6.0207   -0.4904  -17.6737 N   0  0  0  0  0  0  0  0  0  0  0  0
   -5.0789    0.3637  -18.0033 C   0  0  0  0  0  0  0  0  0  0  0  0
   -4.5865    0.5437  -19.3303 C   0  0  0  0  0  0  0  0  0  0  0  0
   -3.5647    1.4818  -19.6345 C   0  0  0  0  0  0  0  0  0  0  0  0
   -3.0999    1.6172  -20.9139 C   0  0  0  0  0  0  0  0  0  0  0  0
   -3.6298    0.8220  -21.9537 C   0  0  0  0  0  0  0  0  0  0  0  0
   -4.6279   -0.0830  -21.6898 C   0  0  0  0  0  0  0  0  0  0  0  0
   -5.1365   -0.2422  -20.3677 C   0  0  0  0  0  0  0  0  0  0  0  0
   -6.3221   -3.3113  -21.3036 C   0  0  0  0  0  0  0  0  0  0  0  0
   -7.5470   -3.8907  -22.0324 C   0  0  2  0  0  0  0  0  0  0  0  0
   -7.2542   -5.1018  -22.9338 C   0  0  0  0  0  0  0  0  0  0  0  0
   -6.8667   -6.3171  -22.2446 N   0  0  0  0  0  0  0  0  0  0  0  0
   -5.6220   -6.5445  -21.7473 C   0  0  0  0  0  0  0  0  0  0  0  0
   -4.4590   -5.9280  -22.2411 C   0  0  0  0  0  0  0  0  0  0  0  0
   -3.2759   -6.2603  -21.6149 C   0  0  0  0  0  0  0  0  0  0  0  0
   -3.2028   -7.0730  -20.5588 N   0  0  0  0  0  0  0  0  0  0  0  0
   -4.3632   -7.5911  -20.1876 C   0  0  0  0  0  0  0  0  0  0  0  0
   -5.5529   -7.4232  -20.7391 N   0  0  0  0  0  0  0  0  0  0  0  0
   -9.7128   -2.7399  -22.9284 C   0  0  0  0  0  0  0  0  0  0  0  0
  -10.5493   -3.6069  -22.2139 C   0  0  0  0  0  0  0  0  0  0  0  0
  -11.9236   -3.5276  -22.3620 C   0  0  0  0  0  0  0  0  0  0  0  0
  -12.9377   -4.6003  -21.4372 Cl  0  0  0  0  0  0  0  0  0  0  0  0
  -12.5235   -2.6029  -23.2147 C   0  0  0  0  0  0  0  0  0  0  0  0
  -11.7075   -1.7571  -23.9365 C   0  0  0  0  0  0  0  0  0  0  0  0
  -10.3207   -1.8349  -23.8111 C   0  0  0  0  0  0  0  0  0  0  0  0
   -9.5137   -0.9098  -24.6686 C   0  0  0  0  0  0  0  0  0  0  0  0
  -10.0336    0.0054  -25.2922 O   0  0  0  0  0  0  0  0  0  0  0  0
   -6.8714    3.5035  -23.8434 H   0  0  0  0  0  0  0  0  0  0  0  0
   -7.3029    2.8053  -22.2645 H   0  0  0  0  0  0  0  0  0  0  0  0
   -5.7055    2.4739  -22.9819 H   0  0  0  0  0  0  0  0  0  0  0  0
   -7.9293    0.8441  -23.2564 H   0  0  0  0  0  0  0  0  0  0  0  0
   -7.9376   -0.0921  -26.4666 H   0  0  0  0  0  0  0  0  0  0  0  0
   -6.4696   -0.8762  -25.8819 H   0  0  0  0  0  0  0  0  0  0  0  0
   -7.7065   -3.1914  -24.7610 H   0  0  0  0  0  0  0  0  0  0  0  0
   -6.4991   -2.1520  -23.9745 H   0  0  0  0  0  0  0  0  0  0  0  0
   -7.3335   -1.9378  -18.3960 H   0  0  0  0  0  0  0  0  0  0  0  0
   -4.6372    0.9622  -17.2047 H   0  0  0  0  0  0  0  0  0  0  0  0
   -3.1663    2.0872  -18.8270 H   0  0  0  0  0  0  0  0  0  0  0  0
   -2.3246    2.3409  -21.1468 H   0  0  0  0  0  0  0  0  0  0  0  0
   -3.2664    0.9500  -22.9710 H   0  0  0  0  0  0  0  0  0  0  0  0
   -5.0237   -0.6884  -22.4997 H   0  0  0  0  0  0  0  0  0  0  0  0
   -6.0277   -3.8660  -20.4091 H   0  0  0  0  0  0  0  0  0  0  0  0
   -5.4387   -3.2468  -21.9597 H   0  0  0  0  0  0  0  0  0  0  0  0
   -8.2358   -4.1991  -21.2409 H   0  0  0  0  0  0  0  0  0  0  0  0
   -8.1221   -5.3390  -23.5601 H   0  0  0  0  0  0  0  0  0  0  0  0
   -6.4420   -4.8559  -23.6206 H   0  0  0  0  0  0  0  0  0  0  0  0
   -7.5741   -6.8060  -21.7113 H   0  0  0  0  0  0  0  0  0  0  0  0
   -4.4844   -5.1977  -23.0372 H   0  0  0  0  0  0  0  0  0  0  0  0
   -2.3236   -5.8483  -21.9487 H   0  0  0  0  0  0  0  0  0  0  0  0
   -4.3495   -8.2141  -19.3064 H   0  0  0  0  0  0  0  0  0  0  0  0
  -10.1539   -4.3592  -21.5421 H   0  0  0  0  0  0  0  0  0  0  0  0
  -13.6051   -2.5653  -23.3001 H   0  0  0  0  0  0  0  0  0  0  0  0
  -12.1233   -1.0204  -24.6149 H   0  0  0  0  0  0  0  0  0  0  0  0
  1  2  1  0
  2  3  1  0
  3  4  2  0
  3  5  1  0
  5  6  1  0
  6  7  1  0
  8  7  1  6
  8  9  1  0
  9 10  2  0
  9 11  1  0
 11 12  1  0
 12 13  2  0
 13 14  1  0
 14 15  2  0
 15 16  1  0
 16 17  2  0
 17 18  1  0
 18 19  2  0
 19 20  1  0
 20 21  2  0
 11 22  1  0
 22 23  1  0
 23 24  1  0
 24 25  1  0
 25 26  1  0
 26 27  2  0
 27 28  1  0
 28 29  2  0
 29 30  1  0
 30 31  2  0
  8 32  1  0
 32 33  2  0
 33 34  1  0
 34 35  1  0
 34 36  2  0
 36 37  1  0
 37 38  2  0
 38 39  1  0
 39 40  2  0
 39  6  1  0
 23  8  1  0
 31 26  1  0
 38 32  1  0
 21 12  1  0
 21 16  1  0
  1 41  1  0
  1 42  1  0
  1 43  1  0
  2 44  1  0
  5 45  1  0
  5 46  1  0
  7 47  1  0
  7 48  1  0
 13 49  1  0
 15 50  1  0
 17 51  1  0
 18 52  1  0
 19 53  1  0
 20 54  1  0
 22 55  1  0
 22 56  1  0
 23 57  1  1
 24 58  1  0
 24 59  1  0
 25 60  1  0
 27 61  1  0
 28 62  1  0
 30 63  1  0
 33 64  1  0
 36 65  1  0
 37 66  1  0
M  END
>  <RMSD>  (3) 
0.061190582904894805

$$$$

     RDKit          3D

 56 60  0  0  0  0  0  0  0  0999 V2000
    6.1133    4.2692   22.3567 C   0  0  0  0  0  0  0  0  0  0  0  0
    6.7093    3.2582   23.2013 N   0  0  0  0  0  0  0  0  0  0  0  0
    6.2144    3.0247   24.4350 C   0  0  0  0  0  0  0  0  0  0  0  0
    5.3361    3.7032   24.9494 O   0  0  0  0  0  0  0  0  0  0  0  0
    6.7717    1.8184   25.1991 C   0  0  0  0  0  0  0  0  0  0  0  0
    7.6674    0.9393   24.4745 N   0  0  0  0  0  0  0  0  0  0  0  0
    7.2014   -0.3873   24.1177 C   0  0  0  0  0  0  0  0  0  0  0  0
    7.9216   -0.9088   22.8483 C   0  0  2  0  0  0  0  0  0  0  0  0
    7.5385   -0.0234   21.6342 C   0  0  0  0  0  0  0  0  0  0  0  0
    8.0075    1.0560   21.3324 O   0  0  0  0  0  0  0  0  0  0  0  0
    6.5341   -0.6623   20.9366 N   0  0  0  0  0  0  0  0  0  0  0  0
    5.8824   -0.0576   19.8286 C   0  0  0  0  0  0  0  0  0  0  0  0
    6.3050   -0.3474   18.5576 C   0  0  0  0  0  0  0  0  0  0  0  0
    5.7658    0.1749   17.4273 N   0  0  0  0  0  0  0  0  0  0  0  0
    4.7636    1.0127   17.5675 C   0  0  0  0  0  0  0  0  0  0  0  0
    4.2016    1.3816   18.8251 C   0  0  0  0  0  0  0  0  0  0  0  0
    3.1167    2.2967   18.9384 C   0  0  0  0  0  0  0  0  0  0  0  0
    2.6067    2.6164   20.1686 C   0  0  0  0  0  0  0  0  0  0  0  0
    3.1452    2.0384   21.3424 C   0  0  0  0  0  0  0  0  0  0  0  0
    4.2024    1.1664   21.2598 C   0  0  0  0  0  0  0  0  0  0  0  0
    4.7657    0.8215   19.9987 C   0  0  0  0  0  0  0  0  0  0  0  0
    6.1298   -1.9301   21.5201 C   0  0  0  0  0  0  0  0  0  0  0  0
    7.3467   -2.2731   22.3863 C   0  0  2  0  0  0  0  0  0  0  0  0
    7.0541   -3.2380   23.4964 N   0  0  0  0  0  0  0  0  0  0  0  0
    9.4095   -0.8496   23.1179 C   0  0  0  0  0  0  0  0  0  0  0  0
   10.3133   -1.7748   22.5818 C   0  0  0  0  0  0  0  0  0  0  0  0
   11.6746   -1.5807   22.7417 C   0  0  0  0  0  0  0  0  0  0  0  0
   12.7726   -2.7199   22.0146 Cl  0  0  0  0  0  0  0  0  0  0  0  0
   12.1827   -0.4843   23.4417 C   0  0  0  0  0  0  0  0  0  0  0  0
   11.2919    0.4226   23.9883 C   0  0  0  0  0  0  0  0  0  0  0  0
    9.9151    0.2450   23.8382 C   0  0  0  0  0  0  0  0  0  0  0  0
    8.9951    1.2648   24.4450 C   0  0  0  0  0  0  0  0  0  0  0  0
    9.3937    2.3417   24.8695 O   0  0  0  0  0  0  0  0  0  0  0  0
    6.1382    5.2586   22.8239 H   0  0  0  0  0  0  0  0  0  0  0  0
    6.6669    4.2960   21.4167 H   0  0  0  0  0  0  0  0  0  0  0  0
    5.0700    4.0200   22.1355 H   0  0  0  0  0  0  0  0  0  0  0  0
    7.5446    2.7915   22.8760 H   0  0  0  0  0  0  0  0  0  0  0  0
    5.9040    1.2387   25.5283 H   0  0  0  0  0  0  0  0  0  0  0  0
    7.2628    2.1884   26.1061 H   0  0  0  0  0  0  0  0  0  0  0  0
    7.3625   -1.0793   24.9574 H   0  0  0  0  0  0  0  0  0  0  0  0
    6.1266   -0.3092   23.9248 H   0  0  0  0  0  0  0  0  0  0  0  0
    7.1404   -1.0278   18.4064 H   0  0  0  0  0  0  0  0  0  0  0  0
    4.3389    1.4420   16.6577 H   0  0  0  0  0  0  0  0  0  0  0  0
    2.7102    2.7445   18.0328 H   0  0  0  0  0  0  0  0  0  0  0  0
    1.7864    3.3240   20.2612 H   0  0  0  0  0  0  0  0  0  0  0  0
    2.7493    2.3117   22.3192 H   0  0  0  0  0  0  0  0  0  0  0  0
    4.6223    0.7321   22.1633 H   0  0  0  0  0  0  0  0  0  0  0  0
    5.2235   -1.8551   22.1471 H   0  0  0  0  0  0  0  0  0  0  0  0
    5.9384   -2.6689   20.7376 H   0  0  0  0  0  0  0  0  0  0  0  0
    8.0723   -2.7551   21.7435 H   0  0  0  0  0  0  0  0  0  0  0  0
    6.8178   -4.1725   23.1129 H   0  0  0  0  0  0  0  0  0  0  0  0
    6.2601   -2.8793   24.0538 H   0  0  0  0  0  0  0  0  0  0  0  0
    7.8775   -3.3229   24.1185 H   0  0  0  0  0  0  0  0  0  0  0  0
    9.9658   -2.6481   22.0402 H   0  0  0  0  0  0  0  0  0  0  0  0
   13.2575   -0.3500   23.5344 H   0  0  0  0  0  0  0  0  0  0  0  0
   11.6511    1.2863   24.5389 H   0  0  0  0  0  0  0  0  0  0  0  0
  1  2  1  0
  2  3  1  0
  3  4  2  0
  3  5  1  0
  5  6  1  0
  6  7  1  0
  8  7  1  1
  8  9  1  0
  9 10  2  0
  9 11  1  0
 11 12  1  0
 12 13  2  0
 13 14  1  0
 14 15  2  0
 15 16  1  0
 16 17  2  0
 17 18  1  0
 18 19  2  0
 19 20  1  0
 20 21  2  0
 11 22  1  0
 22 23  1  0
 23 24  1  0
  8 25  1  0
 25 26  2  0
 26 27  1  0
 27 28  1  0
 27 29  2  0
 29 30  1  0
 30 31  2  0
 31 32  1  0
 32 33  2  0
 32  6  1  0
 23  8  1  0
 31 25  1  0
 21 12  1  0
 21 16  1  0
  1 34  1  0
  1 35  1  0
  1 36  1  0
  2 37  1  0
  5 38  1  0
  5 39  1  0
  7 40  1  0
  7 41  1  0
 13 42  1  0
 15 43  1  0
 17 44  1  0
 18 45  1  0
 19 46  1  0
 20 47  1  0
 22 48  1  0
 22 49  1  0
 23 50  1  6
 24 51  1  0
 24 52  1  0
 24 53  1  0
 26 54  1  0
 29 55  1  0
 30 56  1  0
M  CHG  1  24   1
M  END
>  <RMSD>  (4) 
0.1720599537907972

$$$$

     RDKit          3D

 67 73  0  0  0  0  0  0  0  0999 V2000
    9.6780    1.6175   25.6261 O   0  0  0  0  0  0  0  0  0  0  0  0
    9.1962    0.8405   24.8081 C   0  0  0  0  0  0  0  0  0  0  0  0
   10.0331   -0.1026   24.0075 C   0  0  0  0  0  0  0  0  0  0  0  0
   11.4112   -0.0373   24.1943 C   0  0  0  0  0  0  0  0  0  0  0  0
   12.2623   -0.7554   23.3804 C   0  0  0  0  0  0  0  0  0  0  0  0
   11.7077   -1.5439   22.3736 C   0  0  0  0  0  0  0  0  0  0  0  0
   12.7548   -2.4433   21.3174 Cl  0  0  0  0  0  0  0  0  0  0  0  0
   10.3421   -1.6320   22.1827 C   0  0  0  0  0  0  0  0  0  0  0  0
    9.4710   -0.9246   23.0190 C   0  0  0  0  0  0  0  0  0  0  0  0
    7.9853   -0.9500   22.7388 C   0  0  1  0  0  0  0  0  0  0  0  0
    7.2508   -0.3793   23.9788 C   0  0  0  0  0  0  0  0  0  0  0  0
    7.8732    0.8406   24.4598 N   0  0  0  0  0  0  0  0  0  0  0  0
    7.1039    2.0633   24.6518 C   0  0  0  0  0  0  0  0  0  0  0  0
    7.5329    3.2297   23.7670 C   0  0  0  0  0  0  0  0  0  0  0  0
    6.9558    3.5247   22.5462 C   0  0  0  0  0  0  0  0  0  0  0  0
    7.3485    4.7048   21.9097 C   0  0  0  0  0  0  0  0  0  0  0  0
    8.2559    5.5400   22.4071 N   0  0  0  0  0  0  0  0  0  0  0  0
    8.8626    5.2318   23.5446 N   0  0  0  0  0  0  0  0  0  0  0  0
    8.5301    4.1155   24.1907 C   0  0  0  0  0  0  0  0  0  0  0  0
    7.6450   -0.1259   21.4702 C   0  0  0  0  0  0  0  0  0  0  0  0
    8.2437    0.8152   21.0009 O   0  0  0  0  0  0  0  0  0  0  0  0
    6.5056   -0.6784   20.9234 N   0  0  0  0  0  0  0  0  0  0  0  0
    5.8650   -0.0811   19.8155 C   0  0  0  0  0  0  0  0  0  0  0  0
    6.3078   -0.3435   18.5431 C   0  0  0  0  0  0  0  0  0  0  0  0
    5.7739    0.1922   17.4161 N   0  0  0  0  0  0  0  0  0  0  0  0
    4.7657    1.0182   17.5737 C   0  0  0  0  0  0  0  0  0  0  0  0
    4.2131    1.3819   18.8376 C   0  0  0  0  0  0  0  0  0  0  0  0
    3.1270    2.2901   18.9446 C   0  0  0  0  0  0  0  0  0  0  0  0
    2.6130    2.6160   20.1697 C   0  0  0  0  0  0  0  0  0  0  0  0
    3.1561    2.0540   21.3444 C   0  0  0  0  0  0  0  0  0  0  0  0
    4.2117    1.1751   21.2685 C   0  0  0  0  0  0  0  0  0  0  0  0
    4.7672    0.8149   20.0060 C   0  0  0  0  0  0  0  0  0  0  0  0
    6.1244   -1.9487   21.5021 C   0  0  0  0  0  0  0  0  0  0  0  0
    7.3838   -2.3221   22.3030 C   0  0  2  0  0  0  0  0  0  0  0  0
    7.1579   -3.3536   23.4166 C   0  0  0  0  0  0  0  0  0  0  0  0
    6.8894   -4.6959   22.9507 N   0  0  0  0  0  0  0  0  0  0  0  0
    5.6979   -5.1191   22.4542 C   0  0  0  0  0  0  0  0  0  0  0  0
    4.4574   -4.5205   22.7405 C   0  0  0  0  0  0  0  0  0  0  0  0
    3.3464   -5.0756   22.1345 C   0  0  0  0  0  0  0  0  0  0  0  0
    3.4018   -6.1320   21.3134 N   0  0  0  0  0  0  0  0  0  0  0  0
    4.6213   -6.6262   21.1462 C   0  0  0  0  0  0  0  0  0  0  0  0
    5.7631   -6.2034   21.6668 N   0  0  0  0  0  0  0  0  0  0  0  0
   11.7844    0.6203   24.9706 H   0  0  0  0  0  0  0  0  0  0  0  0
   13.3392   -0.6873   23.4855 H   0  0  0  0  0  0  0  0  0  0  0  0
    9.9670   -2.2360   21.3638 H   0  0  0  0  0  0  0  0  0  0  0  0
    7.2632   -1.1408   24.7705 H   0  0  0  0  0  0  0  0  0  0  0  0
    6.1999   -0.1702   23.7466 H   0  0  0  0  0  0  0  0  0  0  0  0
    6.0602    1.8100   24.4428 H   0  0  0  0  0  0  0  0  0  0  0  0
    7.1836    2.3507   25.7071 H   0  0  0  0  0  0  0  0  0  0  0  0
    6.1885    2.8930   22.1031 H   0  0  0  0  0  0  0  0  0  0  0  0
    6.9206    4.9928   20.9499 H   0  0  0  0  0  0  0  0  0  0  0  0
    9.0959    3.9092   25.0970 H   0  0  0  0  0  0  0  0  0  0  0  0
    7.1511   -1.0161   18.4013 H   0  0  0  0  0  0  0  0  0  0  0  0
    4.3200    1.4444   16.6738 H   0  0  0  0  0  0  0  0  0  0  0  0
    2.7213    2.7173   18.0318 H   0  0  0  0  0  0  0  0  0  0  0  0
    1.7832    3.3118   20.2476 H   0  0  0  0  0  0  0  0  0  0  0  0
    2.7355    2.3160   22.3107 H   0  0  0  0  0  0  0  0  0  0  0  0
    4.6195    0.7549   22.1836 H   0  0  0  0  0  0  0  0  0  0  0  0
    5.2402   -1.8453   22.1523 H   0  0  0  0  0  0  0  0  0  0  0  0
    5.8725   -2.6681   20.7176 H   0  0  0  0  0  0  0  0  0  0  0  0
    8.0904   -2.7515   21.5852 H   0  0  0  0  0  0  0  0  0  0  0  0
    6.3185   -3.0431   24.0448 H   0  0  0  0  0  0  0  0  0  0  0  0
    8.0335   -3.4044   24.0720 H   0  0  0  0  0  0  0  0  0  0  0  0
    7.6629   -5.2439   22.6046 H   0  0  0  0  0  0  0  0  0  0  0  0
    4.3639   -3.6638   23.3983 H   0  0  0  0  0  0  0  0  0  0  0  0
    2.3496   -4.6647   22.3061 H   0  0  0  0  0  0  0  0  0  0  0  0
    4.7159   -7.4951   20.5018 H   0  0  0  0  0  0  0  0  0  0  0  0
  1  2  2  0
  2  3  1  0
  3  4  2  0
  4  5  1  0
  5  6  2  0
  6  7  1  0
  6  8  1  0
  8  9  2  0
  9 10  1  0
 10 11  1  1
 11 12  1  0
 12 13  1  0
 13 14  1  0
 14 15  2  0
 15 16  1  0
 16 17  2  0
 17 18  1  0
 18 19  2  0
 10 20  1  0
 20 21  2  0
 20 22  1  0
 22 23  1  0
 23 24  2  0
 24 25  1  0
 25 26  2  0
 26 27  1  0
 27 28  2  0
 28 29  1  0
 29 30  2  0
 30 31  1  0
 31 32  2  0
 22 33  1  0
 33 34  1  0
 34 35  1  0
 35 36  1  0
 36 37  1  0
 37 38  2  0
 38 39  1  0
 39 40  2  0
 40 41  1  0
 41 42  2  0
 12  2  1  0
 19 14  1  0
 32 23  1  0
 42 37  1  0
  9  3  1  0
 34 10  1  0
 32 27  1  0
  4 43  1  0
  5 44  1  0
  8 45  1  0
 11 46  1  0
 11 47  1  0
 13 48  1  0
 13 49  1  0
 15 50  1  0
 16 51  1  0
 19 52  1  0
 24 53  1  0
 26 54  1  0
 28 55  1  0
 29 56  1  0
 30 57  1  0
 31 58  1  0
 33 59  1  0
 33 60  1  0
 34 61  1  6
 35 62  1  0
 35 63  1  0
 36 64  1  0
 38 65  1  0
 39 66  1  0
 41 67  1  0
M  END
>  <RMSD>  (5) 
0.18046686966402514

$$$$

     RDKit          3D

 68 73  0  0  0  0  0  0  0  0999 V2000
   -6.7629    2.6529  -23.2139 C   0  0  0  0  0  0  0  0  0  0  0  0
   -7.3229    1.4775  -23.8543 N   0  0  0  0  0  0  0  0  0  0  0  0
   -6.8398    1.0553  -25.0417 C   0  0  0  0  0  0  0  0  0  0  0  0
   -6.0179    1.6880  -25.6944 O   0  0  0  0  0  0  0  0  0  0  0  0
   -7.3434   -0.2957  -25.5740 C   0  0  0  0  0  0  0  0  0  0  0  0
   -8.1592   -1.0976  -24.6869 N   0  0  0  0  0  0  0  0  0  0  0  0
   -7.5871   -2.3015  -24.1132 C   0  0  0  0  0  0  0  0  0  0  0  0
   -8.2325   -2.6385  -22.7459 C   0  0  2  0  0  0  0  0  0  0  0  0
   -7.8700   -1.5359  -21.7130 C   0  0  0  0  0  0  0  0  0  0  0  0
   -8.3961   -0.4484  -21.5708 O   0  0  0  0  0  0  0  0  0  0  0  0
   -6.8012   -1.9870  -20.9661 N   0  0  0  0  0  0  0  0  0  0  0  0
   -6.1748   -1.1552  -19.9992 C   0  0  0  0  0  0  0  0  0  0  0  0
   -6.5494   -1.2371  -18.6838 C   0  0  0  0  0  0  0  0  0  0  0  0
   -6.0128   -0.4954  -17.6791 N   0  0  0  0  0  0  0  0  0  0  0  0
   -5.0715    0.3593  -18.0041 C   0  0  0  0  0  0  0  0  0  0  0  0
   -4.5755    0.5445  -19.3287 C   0  0  0  0  0  0  0  0  0  0  0  0
   -3.5535    1.4846  -19.6335 C   0  0  0  0  0  0  0  0  0  0  0  0
   -3.0929    1.6176  -20.9152 C   0  0  0  0  0  0  0  0  0  0  0  0
   -3.6262    0.8171  -21.9522 C   0  0  0  0  0  0  0  0  0  0  0  0
   -4.6231   -0.0884  -21.6838 C   0  0  0  0  0  0  0  0  0  0  0  0
   -5.1347   -0.2414  -20.3650 C   0  0  0  0  0  0  0  0  0  0  0  0
   -6.3414   -3.3156  -21.3325 C   0  0  0  0  0  0  0  0  0  0  0  0
   -7.5649   -3.8772  -22.0774 C   0  0  2  0  0  0  0  0  0  0  0  0
   -7.2579   -5.0656  -23.0099 C   0  0  0  0  0  0  0  0  0  0  0  0
   -6.8688   -6.2899  -22.3485 N   0  0  0  0  0  0  0  0  0  0  0  0
   -5.5567   -6.5369  -21.9732 C   0  0  0  0  0  0  0  0  0  0  0  0
   -5.1052   -7.5562  -21.0885 C   0  0  0  0  0  0  0  0  0  0  0  0
   -3.7804   -7.5662  -20.9955 N   0  0  0  0  0  0  0  0  0  0  0  0
   -3.3578   -6.5919  -21.8013 N   0  0  0  0  0  0  0  0  0  0  0  0
   -1.9502   -6.2832  -21.9159 C   0  0  0  0  0  0  0  0  0  0  0  0
   -4.3880   -5.9396  -22.4105 C   0  0  0  0  0  0  0  0  0  0  0  0
   -9.7306   -2.7104  -22.9603 C   0  0  0  0  0  0  0  0  0  0  0  0
  -10.5574   -3.5861  -22.2462 C   0  0  0  0  0  0  0  0  0  0  0  0
  -11.9325   -3.5082  -22.3797 C   0  0  0  0  0  0  0  0  0  0  0  0
  -12.9410   -4.5725  -21.4359 Cl  0  0  0  0  0  0  0  0  0  0  0  0
  -12.5324   -2.5832  -23.2356 C   0  0  0  0  0  0  0  0  0  0  0  0
  -11.7196   -1.7344  -23.9636 C   0  0  0  0  0  0  0  0  0  0  0  0
  -10.3333   -1.7972  -23.8389 C   0  0  0  0  0  0  0  0  0  0  0  0
   -9.5047   -0.8509  -24.6602 C   0  0  0  0  0  0  0  0  0  0  0  0
   -9.9850    0.1068  -25.2558 O   0  0  0  0  0  0  0  0  0  0  0  0
   -5.6964    2.5042  -22.9966 H   0  0  0  0  0  0  0  0  0  0  0  0
   -6.8644    3.5421  -23.8471 H   0  0  0  0  0  0  0  0  0  0  0  0
   -7.2987    2.8056  -22.2726 H   0  0  0  0  0  0  0  0  0  0  0  0
   -8.0648    0.9768  -23.3846 H   0  0  0  0  0  0  0  0  0  0  0  0
   -6.4422   -0.8577  -25.8354 H   0  0  0  0  0  0  0  0  0  0  0  0
   -7.8923   -0.0956  -26.5008 H   0  0  0  0  0  0  0  0  0  0  0  0
   -6.5126   -2.1276  -23.9834 H   0  0  0  0  0  0  0  0  0  0  0  0
   -7.7253   -3.1492  -24.7999 H   0  0  0  0  0  0  0  0  0  0  0  0
   -7.3290   -1.9382  -18.3913 H   0  0  0  0  0  0  0  0  0  0  0  0
   -4.6579    0.9596  -17.1932 H   0  0  0  0  0  0  0  0  0  0  0  0
   -3.1639    2.0984  -18.8243 H   0  0  0  0  0  0  0  0  0  0  0  0
   -2.3277    2.3521  -21.1539 H   0  0  0  0  0  0  0  0  0  0  0  0
   -3.2743    0.9458  -22.9742 H   0  0  0  0  0  0  0  0  0  0  0  0
   -5.0351   -0.6986  -22.4828 H   0  0  0  0  0  0  0  0  0  0  0  0
   -5.4505   -3.2773  -21.9833 H   0  0  0  0  0  0  0  0  0  0  0  0
   -6.0591   -3.8942  -20.4480 H   0  0  0  0  0  0  0  0  0  0  0  0
   -8.2664   -4.2025  -21.3013 H   0  0  0  0  0  0  0  0  0  0  0  0
   -8.1542   -5.2800  -23.6051 H   0  0  0  0  0  0  0  0  0  0  0  0
   -6.4457   -4.7871  -23.7009 H   0  0  0  0  0  0  0  0  0  0  0  0
   -7.5753   -6.7669  -21.8035 H   0  0  0  0  0  0  0  0  0  0  0  0
   -5.6713   -8.2897  -20.5145 H   0  0  0  0  0  0  0  0  0  0  0  0
   -1.7498   -5.9804  -22.9478 H   0  0  0  0  0  0  0  0  0  0  0  0
   -1.3818   -7.1803  -21.6647 H   0  0  0  0  0  0  0  0  0  0  0  0
   -1.6649   -5.4765  -21.2311 H   0  0  0  0  0  0  0  0  0  0  0  0
   -4.1937   -5.1133  -23.0872 H   0  0  0  0  0  0  0  0  0  0  0  0
  -10.1362   -4.3318  -21.5828 H   0  0  0  0  0  0  0  0  0  0  0  0
  -13.6129   -2.5340  -23.3166 H   0  0  0  0  0  0  0  0  0  0  0  0
  -12.1251   -0.9925  -24.6422 H   0  0  0  0  0  0  0  0  0  0  0  0
  1  2  1  0
  2  3  1  0
  3  4  2  0
  3  5  1  0
  5  6  1  0
  6  7  1  0
  8  7  1  6
  8  9  1  0
  9 10  2  0
  9 11  1  0
 11 12  1  0
 12 13  2  0
 13 14  1  0
 14 15  2  0
 15 16  1  0
 16 17  2  0
 17 18  1  0
 18 19  2  0
 19 20  1  0
 20 21  2  0
 11 22  1  0
 22 23  1  0
 23 24  1  0
 24 25  1  0
 25 26  1  0
 26 27  1  0
 27 28  2  0
 28 29  1  0
 29 30  1  0
 29 31  1  0
  8 32  1  0
 32 33  2  0
 33 34  1  0
 34 35  1  0
 34 36  2  0
 36 37  1  0
 37 38  2  0
 38 39  1  0
 39 40  2  0
 39  6  1  0
 23  8  1  0
 31 26  2  0
 38 32  1  0
 21 12  1  0
 21 16  1  0
  1 41  1  0
  1 42  1  0
  1 43  1  0
  2 44  1  0
  5 45  1  0
  5 46  1  0
  7 47  1  0
  7 48  1  0
 13 49  1  0
 15 50  1  0
 17 51  1  0
 18 52  1  0
 19 53  1  0
 20 54  1  0
 22 55  1  0
 22 56  1  0
 23 57  1  1
 24 58  1  0
 24 59  1  0
 25 60  1  0
 27 61  1  0
 30 62  1  0
 30 63  1  0
 30 64  1  0
 31 65  1  0
 33 66  1  0
 36 67  1  0
 37 68  1  0
M  END
>  <RMSD>  (6) 
0.05934391251637603

$$$$

     RDKit          3D

 60 65  0  0  0  0  0  0  0  0999 V2000
   -4.9826    4.2167  -22.8870 C   0  0  0  0  0  0  0  0  0  0  0  0
   -5.5775    3.0378  -23.6005 C   0  0  0  0  0  0  0  0  0  0  0  0
   -6.7716    2.4614  -23.1637 C   0  0  0  0  0  0  0  0  0  0  0  0
   -7.3391    1.4201  -23.7650 N   0  0  0  0  0  0  0  0  0  0  0  0
   -6.7043    0.9254  -24.8228 C   0  0  0  0  0  0  0  0  0  0  0  0
   -7.3099   -0.2561  -25.5502 C   0  0  0  0  0  0  0  0  0  0  0  0
   -8.1578   -1.0818  -24.7126 N   0  0  0  0  0  0  0  0  0  0  0  0
   -7.5854   -2.2815  -24.1255 C   0  0  0  0  0  0  0  0  0  0  0  0
   -8.2318   -2.6357  -22.7560 C   0  0  2  0  0  0  0  0  0  0  0  0
   -7.8817   -1.5271  -21.7244 C   0  0  0  0  0  0  0  0  0  0  0  0
   -8.4219   -0.4582  -21.5709 O   0  0  0  0  0  0  0  0  0  0  0  0
   -6.8078   -1.9748  -20.9767 N   0  0  0  0  0  0  0  0  0  0  0  0
   -6.1732   -1.1566  -20.0049 C   0  0  0  0  0  0  0  0  0  0  0  0
   -6.5461   -1.2450  -18.6866 C   0  0  0  0  0  0  0  0  0  0  0  0
   -6.0167   -0.5016  -17.6822 N   0  0  0  0  0  0  0  0  0  0  0  0
   -5.0746    0.3601  -17.9976 C   0  0  0  0  0  0  0  0  0  0  0  0
   -4.5713    0.5404  -19.3201 C   0  0  0  0  0  0  0  0  0  0  0  0
   -3.5560    1.4882  -19.6294 C   0  0  0  0  0  0  0  0  0  0  0  0
   -3.1000    1.6176  -20.9149 C   0  0  0  0  0  0  0  0  0  0  0  0
   -3.6305    0.8168  -21.9507 C   0  0  0  0  0  0  0  0  0  0  0  0
   -4.6258   -0.0892  -21.6828 C   0  0  0  0  0  0  0  0  0  0  0  0
   -5.1230   -0.2488  -20.3587 C   0  0  0  0  0  0  0  0  0  0  0  0
   -6.3531   -3.2995  -21.3556 C   0  0  0  0  0  0  0  0  0  0  0  0
   -7.5613   -3.8768  -22.1014 C   0  0  2  0  0  0  0  0  0  0  0  0
   -7.2322   -5.0330  -23.0358 C   0  0  0  0  0  0  0  0  0  0  0  0
   -9.7275   -2.7096  -22.9819 C   0  0  0  0  0  0  0  0  0  0  0  0
  -10.5503   -3.5865  -22.2675 C   0  0  0  0  0  0  0  0  0  0  0  0
  -11.9196   -3.4984  -22.4160 C   0  0  0  0  0  0  0  0  0  0  0  0
  -12.6919   -4.3322  -21.7002 F   0  0  0  0  0  0  0  0  0  0  0  0
  -12.5280   -2.5754  -23.2569 C   0  0  0  0  0  0  0  0  0  0  0  0
  -11.7166   -1.7214  -23.9776 C   0  0  0  0  0  0  0  0  0  0  0  0
  -10.3259   -1.7800  -23.8507 C   0  0  0  0  0  0  0  0  0  0  0  0
   -9.4993   -0.8149  -24.6576 C   0  0  0  0  0  0  0  0  0  0  0  0
  -10.0072    0.1333  -25.2429 O   0  0  0  0  0  0  0  0  0  0  0  0
   -5.5102    1.4972  -25.2652 C   0  0  0  0  0  0  0  0  0  0  0  0
   -4.9450    2.5466  -24.6711 N   0  0  0  0  0  0  0  0  0  0  0  0
   -5.5623    5.1272  -23.0609 H   0  0  0  0  0  0  0  0  0  0  0  0
   -3.9584    4.3930  -23.2194 H   0  0  0  0  0  0  0  0  0  0  0  0
   -4.9724    4.0657  -21.8024 H   0  0  0  0  0  0  0  0  0  0  0  0
   -7.2914    2.8676  -22.3016 H   0  0  0  0  0  0  0  0  0  0  0  0
   -6.5204   -0.8949  -25.9625 H   0  0  0  0  0  0  0  0  0  0  0  0
   -7.9080    0.0725  -26.4043 H   0  0  0  0  0  0  0  0  0  0  0  0
   -7.7244   -3.1173  -24.8253 H   0  0  0  0  0  0  0  0  0  0  0  0
   -6.5083   -2.1251  -23.9912 H   0  0  0  0  0  0  0  0  0  0  0  0
   -7.3324   -1.9384  -18.3949 H   0  0  0  0  0  0  0  0  0  0  0  0
   -4.6522    0.9669  -17.1941 H   0  0  0  0  0  0  0  0  0  0  0  0
   -3.1505    2.1118  -18.8371 H   0  0  0  0  0  0  0  0  0  0  0  0
   -2.3342    2.3545  -21.1515 H   0  0  0  0  0  0  0  0  0  0  0  0
   -3.2707    0.9371  -22.9690 H   0  0  0  0  0  0  0  0  0  0  0  0
   -5.0387   -0.7014  -22.4790 H   0  0  0  0  0  0  0  0  0  0  0  0
   -5.4696   -3.2748  -22.0158 H   0  0  0  0  0  0  0  0  0  0  0  0
   -6.0986   -3.8863  -20.4704 H   0  0  0  0  0  0  0  0  0  0  0  0
   -8.2270   -4.2549  -21.3190 H   0  0  0  0  0  0  0  0  0  0  0  0
   -6.8767   -5.9033  -22.4770 H   0  0  0  0  0  0  0  0  0  0  0  0
   -8.1070   -5.3418  -23.6181 H   0  0  0  0  0  0  0  0  0  0  0  0
   -6.4493   -4.7554  -23.7476 H   0  0  0  0  0  0  0  0  0  0  0  0
  -10.1536   -4.3391  -21.5958 H   0  0  0  0  0  0  0  0  0  0  0  0
  -13.6113   -2.5356  -23.3274 H   0  0  0  0  0  0  0  0  0  0  0  0
  -12.1586   -0.9964  -24.6515 H   0  0  0  0  0  0  0  0  0  0  0  0
   -5.0058    1.0975  -26.1385 H   0  0  0  0  0  0  0  0  0  0  0  0
  1  2  1  0
  2  3  2  0
  3  4  1  0
  4  5  2  0
  5  6  1  0
  6  7  1  0
  7  8  1  0
  9  8  1  6
  9 10  1  0
 10 11  2  0
 10 12  1  0
 12 13  1  0
 13 14  2  0
 14 15  1  0
 15 16  2  0
 16 17  1  0
 17 18  2  0
 18 19  1  0
 19 20  2  0
 20 21  1  0
 21 22  2  0
 12 23  1  0
 23 24  1  0
 24 25  1  0
  9 26  1  0
 26 27  2  0
 27 28  1  0
 28 29  1  0
 28 30  2  0
 30 31  1  0
 31 32  2  0
 32 33  1  0
 33 34  2  0
  5 35  1  0
 35 36  2  0
 36  2  1  0
 33  7  1  0
 24  9  1  0
 32 26  1  0
 22 13  1  0
 22 17  1  0
  1 37  1  0
  1 38  1  0
  1 39  1  0
  3 40  1  0
  6 41  1  0
  6 42  1  0
  8 43  1  0
  8 44  1  0
 14 45  1  0
 16 46  1  0
 18 47  1  0
 19 48  1  0
 20 49  1  0
 21 50  1  0
 23 51  1  0
 23 52  1  0
 24 53  1  1
 25 54  1  0
 25 55  1  0
 25 56  1  0
 27 57  1  0
 30 58  1  0
 31 59  1  0
 35 60  1  0
M  END
>  <RMSD>  (7) 
0.0551102986316378

$$$$

     RDKit          3D

 66 70  0  0  0  0  0  0  0  0999 V2000
   -6.7626    2.6526  -23.2209 C   0  0  0  0  0  0  0  0  0  0  0  0
   -7.3112    1.4752  -23.8585 N   0  0  0  0  0  0  0  0  0  0  0  0
   -6.8326    1.0653  -25.0526 C   0  0  0  0  0  0  0  0  0  0  0  0
   -6.0161    1.6983  -25.7053 O   0  0  0  0  0  0  0  0  0  0  0  0
   -7.3278   -0.2854  -25.5808 C   0  0  0  0  0  0  0  0  0  0  0  0
   -8.1462   -1.0807  -24.6886 N   0  0  0  0  0  0  0  0  0  0  0  0
   -7.5820   -2.2899  -24.1209 C   0  0  0  0  0  0  0  0  0  0  0  0
   -8.2306   -2.6354  -22.7549 C   0  0  2  0  0  0  0  0  0  0  0  0
   -7.8763   -1.5343  -21.7256 C   0  0  0  0  0  0  0  0  0  0  0  0
   -8.4077   -0.4496  -21.5918 O   0  0  0  0  0  0  0  0  0  0  0  0
   -6.8122   -1.9816  -20.9708 N   0  0  0  0  0  0  0  0  0  0  0  0
   -6.1757   -1.1559  -20.0041 C   0  0  0  0  0  0  0  0  0  0  0  0
   -6.5468   -1.2430  -18.6874 C   0  0  0  0  0  0  0  0  0  0  0  0
   -6.0146   -0.5009  -17.6826 N   0  0  0  0  0  0  0  0  0  0  0  0
   -5.0748    0.3595  -18.0001 C   0  0  0  0  0  0  0  0  0  0  0  0
   -4.5717    0.5407  -19.3217 C   0  0  0  0  0  0  0  0  0  0  0  0
   -3.5537    1.4877  -19.6297 C   0  0  0  0  0  0  0  0  0  0  0  0
   -3.0982    1.6214  -20.9139 C   0  0  0  0  0  0  0  0  0  0  0  0
   -3.6271    0.8176  -21.9514 C   0  0  0  0  0  0  0  0  0  0  0  0
   -4.6206   -0.0908  -21.6827 C   0  0  0  0  0  0  0  0  0  0  0  0
   -5.1274   -0.2480  -20.3617 C   0  0  0  0  0  0  0  0  0  0  0  0
   -6.3466   -3.3043  -21.3515 C   0  0  0  0  0  0  0  0  0  0  0  0
   -7.5628   -3.8707  -22.1021 C   0  0  2  0  0  0  0  0  0  0  0  0
   -7.2633   -5.0432  -23.0331 C   0  0  0  0  0  0  0  0  0  0  0  0
   -6.9218   -6.1905  -22.2900 O   0  0  0  0  0  0  0  0  0  0  0  0
   -5.5457   -6.5387  -22.2898 C   0  0  0  0  0  0  0  0  0  0  0  0
   -5.2178   -7.4236  -23.4830 C   0  0  0  0  0  0  0  0  0  0  0  0
   -5.2449   -7.2304  -20.9735 C   0  0  0  0  0  0  0  0  0  0  0  0
   -9.7244   -2.7146  -22.9789 C   0  0  0  0  0  0  0  0  0  0  0  0
  -10.5500   -3.5895  -22.2619 C   0  0  0  0  0  0  0  0  0  0  0  0
  -11.9247   -3.5086  -22.3986 C   0  0  0  0  0  0  0  0  0  0  0  0
  -12.9263   -4.5697  -21.4480 Cl  0  0  0  0  0  0  0  0  0  0  0  0
  -12.5238   -2.5822  -23.2553 C   0  0  0  0  0  0  0  0  0  0  0  0
  -11.7104   -1.7298  -23.9809 C   0  0  0  0  0  0  0  0  0  0  0  0
  -10.3221   -1.7920  -23.8534 C   0  0  0  0  0  0  0  0  0  0  0  0
   -9.4916   -0.8357  -24.6617 C   0  0  0  0  0  0  0  0  0  0  0  0
   -9.9736    0.1243  -25.2468 O   0  0  0  0  0  0  0  0  0  0  0  0
   -6.8666    3.5433  -23.8491 H   0  0  0  0  0  0  0  0  0  0  0  0
   -7.2927    2.8069  -22.2785 H   0  0  0  0  0  0  0  0  0  0  0  0
   -5.6991    2.5099  -22.9991 H   0  0  0  0  0  0  0  0  0  0  0  0
   -8.1040    1.0220  -23.4279 H   0  0  0  0  0  0  0  0  0  0  0  0
   -6.4313   -0.8598  -25.8358 H   0  0  0  0  0  0  0  0  0  0  0  0
   -7.8649   -0.1086  -26.5189 H   0  0  0  0  0  0  0  0  0  0  0  0
   -7.7173   -3.1292  -24.8202 H   0  0  0  0  0  0  0  0  0  0  0  0
   -6.5066   -2.1322  -23.9846 H   0  0  0  0  0  0  0  0  0  0  0  0
   -7.3306   -1.9366  -18.3904 H   0  0  0  0  0  0  0  0  0  0  0  0
   -4.6568    0.9648  -17.1926 H   0  0  0  0  0  0  0  0  0  0  0  0
   -3.1544    2.1092  -18.8293 H   0  0  0  0  0  0  0  0  0  0  0  0
   -2.3300    2.3515  -21.1556 H   0  0  0  0  0  0  0  0  0  0  0  0
   -3.2750    0.9425  -22.9736 H   0  0  0  0  0  0  0  0  0  0  0  0
   -5.0341   -0.7002  -22.4826 H   0  0  0  0  0  0  0  0  0  0  0  0
   -6.0795   -3.8869  -20.4653 H   0  0  0  0  0  0  0  0  0  0  0  0
   -5.4556   -3.2736  -22.0051 H   0  0  0  0  0  0  0  0  0  0  0  0
   -8.2286   -4.2564  -21.3309 H   0  0  0  0  0  0  0  0  0  0  0  0
   -8.1516   -5.2755  -23.6411 H   0  0  0  0  0  0  0  0  0  0  0  0
   -6.4543   -4.7680  -23.7285 H   0  0  0  0  0  0  0  0  0  0  0  0
   -4.9464   -5.6193  -22.3475 H   0  0  0  0  0  0  0  0  0  0  0  0
   -4.1594   -7.7036  -23.4735 H   0  0  0  0  0  0  0  0  0  0  0  0
   -5.4308   -6.9165  -24.4285 H   0  0  0  0  0  0  0  0  0  0  0  0
   -5.8216   -8.3347  -23.4454 H   0  0  0  0  0  0  0  0  0  0  0  0
   -4.1809   -7.4865  -20.9156 H   0  0  0  0  0  0  0  0  0  0  0  0
   -5.4887   -6.5794  -20.1281 H   0  0  0  0  0  0  0  0  0  0  0  0
   -5.8262   -8.1527  -20.8773 H   0  0  0  0  0  0  0  0  0  0  0  0
  -10.1318   -4.3365  -21.5941 H   0  0  0  0  0  0  0  0  0  0  0  0
  -13.6075   -2.5331  -23.3302 H   0  0  0  0  0  0  0  0  0  0  0  0
  -12.1416   -0.9986  -24.6571 H   0  0  0  0  0  0  0  0  0  0  0  0
  1  2  1  0
  2  3  1  0
  3  4  2  0
  3  5  1  0
  5  6  1  0
  6  7  1  0
  8  7  1  6
  8  9  1  0
  9 10  2  0
  9 11  1  0
 11 12  1  0
 12 13  2  0
 13 14  1  0
 14 15  2  0
 15 16  1  0
 16 17  2  0
 17 18  1  0
 18 19  2  0
 19 20  1  0
 20 21  2  0
 11 22  1  0
 22 23  1  0
 23 24  1  0
 24 25  1  0
 25 26  1  0
 26 27  1  0
 26 28  1  0
  8 29  1  0
 29 30  2  0
 30 31  1  0
 31 32  1  0
 31 33  2  0
 33 34  1  0
 34 35  2  0
 35 36  1  0
 36 37  2  0
 36  6  1  0
 23  8  1  0
 35 29  1  0
 21 12  1  0
 21 16  1  0
  1 38  1  0
  1 39  1  0
  1 40  1  0
  2 41  1  0
  5 42  1  0
  5 43  1  0
  7 44  1  0
  7 45  1  0
 13 46  1  0
 15 47  1  0
 17 48  1  0
 18 49  1  0
 19 50  1  0
 20 51  1  0
 22 52  1  0
 22 53  1  0
 23 54  1  1
 24 55  1  0
 24 56  1  0
 26 57  1  0
 27 58  1  0
 27 59  1  0
 27 60  1  0
 28 61  1  0
 28 62  1  0
 28 63  1  0
 30 64  1  0
 33 65  1  0
 34 66  1  0
M  END
>  <RMSD>  (8) 
0.05689016731596934

$$$$

     RDKit          3D

 59 64  0  0  0  0  0  0  0  0999 V2000
   -7.2369   -5.0304  -23.0343 C   0  0  0  0  0  0  0  0  0  0  0  0
   -7.5640   -3.8709  -22.1020 C   0  0  1  0  0  0  0  0  0  0  0  0
   -6.3522   -3.2982  -21.3547 C   0  0  0  0  0  0  0  0  0  0  0  0
   -6.8105   -1.9765  -20.9728 N   0  0  0  0  0  0  0  0  0  0  0  0
   -6.1766   -1.1528  -20.0046 C   0  0  0  0  0  0  0  0  0  0  0  0
   -6.5485   -1.2412  -18.6881 C   0  0  0  0  0  0  0  0  0  0  0  0
   -6.0143   -0.5009  -17.6832 N   0  0  0  0  0  0  0  0  0  0  0  0
   -5.0742    0.3590  -18.0009 C   0  0  0  0  0  0  0  0  0  0  0  0
   -4.5709    0.5406  -19.3221 C   0  0  0  0  0  0  0  0  0  0  0  0
   -3.5541    1.4885  -19.6319 C   0  0  0  0  0  0  0  0  0  0  0  0
   -3.1033    1.6256  -20.9155 C   0  0  0  0  0  0  0  0  0  0  0  0
   -3.6294    0.8177  -21.9503 C   0  0  0  0  0  0  0  0  0  0  0  0
   -4.6098   -0.1055  -21.6765 C   0  0  0  0  0  0  0  0  0  0  0  0
   -5.1222   -0.2502  -20.3607 C   0  0  0  0  0  0  0  0  0  0  0  0
   -7.8907   -1.5323  -21.7106 C   0  0  0  0  0  0  0  0  0  0  0  0
   -8.4400   -0.4712  -21.5323 O   0  0  0  0  0  0  0  0  0  0  0  0
   -8.2364   -2.6311  -22.7527 C   0  0  1  0  0  0  0  0  0  0  0  0
   -7.5906   -2.2854  -24.1235 C   0  0  0  0  0  0  0  0  0  0  0  0
   -8.1570   -1.0831  -24.7040 N   0  0  0  0  0  0  0  0  0  0  0  0
   -7.3336   -0.2668  -25.5778 C   0  0  0  0  0  0  0  0  0  0  0  0
   -6.9313    1.0376  -24.9437 C   0  0  0  0  0  0  0  0  0  0  0  0
   -6.9305    1.2591  -23.6493 N   0  0  0  0  0  0  0  0  0  0  0  0
   -6.4502    2.5337  -23.4976 C   0  0  0  0  0  0  0  0  0  0  0  0
   -6.1433    3.0776  -24.7180 C   0  0  0  0  0  0  0  0  0  0  0  0
   -6.4499    2.1042  -25.6454 N   0  0  0  0  0  0  0  0  0  0  0  0
   -6.3147    2.1980  -27.0831 C   0  0  0  0  0  0  0  0  0  0  0  0
   -9.4984   -0.8172  -24.6541 C   0  0  0  0  0  0  0  0  0  0  0  0
   -9.9877    0.1335  -25.2446 O   0  0  0  0  0  0  0  0  0  0  0  0
  -10.3296   -1.7773  -23.8456 C   0  0  0  0  0  0  0  0  0  0  0  0
  -11.7197   -1.7164  -23.9729 C   0  0  0  0  0  0  0  0  0  0  0  0
  -12.5360   -2.5708  -23.2553 C   0  0  0  0  0  0  0  0  0  0  0  0
  -11.9252   -3.4957  -22.4129 C   0  0  0  0  0  0  0  0  0  0  0  0
  -12.6994   -4.3291  -21.6966 F   0  0  0  0  0  0  0  0  0  0  0  0
  -10.5556   -3.5830  -22.2636 C   0  0  0  0  0  0  0  0  0  0  0  0
   -9.7310   -2.7068  -22.9778 C   0  0  0  0  0  0  0  0  0  0  0  0
   -6.8809   -5.9043  -22.4789 H   0  0  0  0  0  0  0  0  0  0  0  0
   -8.1116   -5.3384  -23.6167 H   0  0  0  0  0  0  0  0  0  0  0  0
   -6.4566   -4.7542  -23.7505 H   0  0  0  0  0  0  0  0  0  0  0  0
   -8.2403   -4.2398  -21.3268 H   0  0  0  0  0  0  0  0  0  0  0  0
   -5.4662   -3.2736  -22.0134 H   0  0  0  0  0  0  0  0  0  0  0  0
   -6.0890   -3.8829  -20.4695 H   0  0  0  0  0  0  0  0  0  0  0  0
   -7.3319   -1.9363  -18.3939 H   0  0  0  0  0  0  0  0  0  0  0  0
   -4.6547    0.9629  -17.1935 H   0  0  0  0  0  0  0  0  0  0  0  0
   -3.1537    2.1089  -18.8313 H   0  0  0  0  0  0  0  0  0  0  0  0
   -2.3316    2.3547  -21.1537 H   0  0  0  0  0  0  0  0  0  0  0  0
   -3.2765    0.9418  -22.9710 H   0  0  0  0  0  0  0  0  0  0  0  0
   -5.0416   -0.6986  -22.4805 H   0  0  0  0  0  0  0  0  0  0  0  0
   -7.7275   -3.1279  -24.8197 H   0  0  0  0  0  0  0  0  0  0  0  0
   -6.5158   -2.1208  -23.9859 H   0  0  0  0  0  0  0  0  0  0  0  0
   -6.4283   -0.8432  -25.8153 H   0  0  0  0  0  0  0  0  0  0  0  0
   -7.8695   -0.0999  -26.5192 H   0  0  0  0  0  0  0  0  0  0  0  0
   -6.3459    2.9802  -22.5193 H   0  0  0  0  0  0  0  0  0  0  0  0
   -5.7482    4.0431  -25.0026 H   0  0  0  0  0  0  0  0  0  0  0  0
   -7.2868    2.2392  -27.5864 H   0  0  0  0  0  0  0  0  0  0  0  0
   -5.7697    3.1096  -27.3188 H   0  0  0  0  0  0  0  0  0  0  0  0
   -5.7457    1.3548  -27.4870 H   0  0  0  0  0  0  0  0  0  0  0  0
  -12.1536   -0.9866  -24.6471 H   0  0  0  0  0  0  0  0  0  0  0  0
  -13.6214   -2.5331  -23.3208 H   0  0  0  0  0  0  0  0  0  0  0  0
  -10.1530   -4.3361  -21.5930 H   0  0  0  0  0  0  0  0  0  0  0  0
  1  2  1  0
  2  3  1  0
  3  4  1  0
  4  5  1  0
  5  6  2  0
  6  7  1  0
  7  8  2  0
  8  9  1  0
  9 10  2  0
 10 11  1  0
 11 12  2  0
 12 13  1  0
 13 14  2  0
  4 15  1  0
 15 16  2  0
 15 17  1  0
 17 18  1  6
 18 19  1  0
 19 20  1  0
 20 21  1  0
 21 22  2  0
 22 23  1  0
 23 24  2  0
 24 25  1  0
 25 26  1  0
 19 27  1  0
 27 28  2  0
 27 29  1  0
 29 30  2  0
 30 31  1  0
 31 32  2  0
 32 33  1  0
 32 34  1  0
 34 35  2  0
 17  2  1  0
 25 21  1  0
 35 29  1  0
 14  5  1  0
 35 17  1  0
 14  9  1  0
  1 36  1  0
  1 37  1  0
  1 38  1  0
  2 39  1  1
  3 40  1  0
  3 41  1  0
  6 42  1  0
  8 43  1  0
 10 44  1  0
 11 45  1  0
 12 46  1  0
 13 47  1  0
 18 48  1  0
 18 49  1  0
 20 50  1  0
 20 51  1  0
 23 52  1  0
 24 53  1  0
 26 54  1  0
 26 55  1  0
 26 56  1  0
 30 57  1  0
 31 58  1  0
 34 59  1  0
M  END
>  <RMSD>  (9) 
0.057052355867605827

$$$$

     RDKit          3D

 23 26  0  0  0  0  0  0  0  0999 V2000
    8.9721    3.2696   23.0201 C   0  0  0  0  0  0  0  0  0  0  0  0
    9.6163    2.1364   22.2242 C   0  0  1  0  0  0  0  0  0  0  0  0
   10.9780    1.8377   22.7460 C   0  0  0  0  0  0  0  0  0  0  0  0
   12.1878    2.5084   22.3872 C   0  0  0  0  0  0  0  0  0  0  0  0
   13.2740    1.9695   22.9912 C   0  0  0  0  0  0  0  0  0  0  0  0
   12.8193    0.7356   24.1114 S   0  0  0  0  0  0  0  0  0  0  0  0
   11.1532    0.8577   23.6682 C   0  0  0  0  0  0  0  0  0  0  0  0
   10.0029    0.0251   24.1711 C   0  0  0  0  0  0  0  0  0  0  0  0
    9.0233   -0.2508   23.0228 C   0  0  0  0  0  0  0  0  0  0  0  0
    8.7843    0.9224   22.1753 N   0  0  0  0  0  0  0  0  0  0  0  0
    7.8125    0.9354   21.2076 C   0  0  0  0  0  0  0  0  0  0  0  0
    7.6808    1.8925   20.4618 O   0  0  0  0  0  0  0  0  0  0  0  0
    6.9130   -0.3054   21.0777 C   0  0  0  0  0  0  0  0  0  0  0  0
    5.8845   -0.1691   19.9838 C   0  0  0  0  0  0  0  0  0  0  0  0
    6.0617   -0.7884   18.7735 C   0  0  0  0  0  0  0  0  0  0  0  0
    5.2526   -0.6500   17.6911 N   0  0  0  0  0  0  0  0  0  0  0  0
    4.1903    0.1024   17.8359 C   0  0  0  0  0  0  0  0  0  0  0  0
    3.8388    0.7601   19.0443 C   0  0  0  0  0  0  0  0  0  0  0  0
    2.6609    1.5385   19.1646 C   0  0  0  0  0  0  0  0  0  0  0  0
    2.3506    2.1574   20.3424 C   0  0  0  0  0  0  0  0  0  0  0  0
    3.2295    2.0542   21.4429 C   0  0  0  0  0  0  0  0  0  0  0  0
    4.3866    1.3202   21.3470 C   0  0  0  0  0  0  0  0  0  0  0  0
    4.7169    0.6379   20.1468 C   0  0  0  0  0  0  0  0  0  0  0  0
  2  1  1  1
  2  3  1  0
  3  4  1  0
  4  5  2  0
  5  6  1  0
  6  7  1  0
  7  8  1  0
  8  9  1  0
  9 10  1  0
 10 11  1  0
 11 12  2  0
 11 13  1  0
 13 14  1  0
 14 15  2  0
 15 16  1  0
 16 17  2  0
 17 18  1  0
 18 19  2  0
 19 20  1  0
 20 21  2  0
 21 22  1  0
 22 23  2  0
 10  2  1  0
 23 14  1  0
  7  3  2  0
 23 18  1  0
M  END
>  <cnnaffinities>  (10) 
[5.40567, 5.31416]

>  <score>  (10) 
5.40567

>  <index>  (10) 
4

>  <Smiles>  (10) 
C([C@]1(c2c(c(sc2C(C(N1C(=O)C(c1c(nc(c2c(c(c(c(c12)[H])[H])[H])[H])[H])[H])([H])[H])([H])[H])([H])[H])[H])[H])[H])([H])([H])[H]

>  <h>  (10) 
<NA>

>  <Training>  (10) 
True

>  <Success>  (10) 
True

>  <enamine_searched>  (10) 
False

>  <enamine_id>  (10) 
nan

$$$$

     RDKit          3D

 50 54  0  0  0  0  0  0  0  0999 V2000
   -7.3239   -5.0568  -22.9692 C   0  0  0  0  0  0  0  0  0  0  0  0
   -7.5986   -3.8791  -22.0344 C   0  0  1  0  0  0  0  0  0  0  0  0
   -6.3449   -3.3213  -21.3350 C   0  0  0  0  0  0  0  0  0  0  0  0
   -6.7813   -1.9944  -20.9451 N   0  0  0  0  0  0  0  0  0  0  0  0
   -6.1504   -1.1732  -19.9852 C   0  0  0  0  0  0  0  0  0  0  0  0
   -6.5499   -1.2360  -18.6740 C   0  0  0  0  0  0  0  0  0  0  0  0
   -6.0253   -0.4818  -17.6758 N   0  0  0  0  0  0  0  0  0  0  0  0
   -5.0787    0.3645  -18.0090 C   0  0  0  0  0  0  0  0  0  0  0  0
   -4.5815    0.5370  -19.3332 C   0  0  0  0  0  0  0  0  0  0  0  0
   -3.5627    1.4754  -19.6354 C   0  0  0  0  0  0  0  0  0  0  0  0
   -3.1015    1.6181  -20.9143 C   0  0  0  0  0  0  0  0  0  0  0  0
   -3.6385    0.8324  -21.9573 C   0  0  0  0  0  0  0  0  0  0  0  0
   -4.6320   -0.0785  -21.6947 C   0  0  0  0  0  0  0  0  0  0  0  0
   -5.1265   -0.2501  -20.3697 C   0  0  0  0  0  0  0  0  0  0  0  0
   -7.9667   -1.6016  -21.5273 C   0  0  0  0  0  0  0  0  0  0  0  0
   -8.5977   -0.6271  -21.1814 O   0  0  0  0  0  0  0  0  0  0  0  0
   -8.2888   -2.6223  -22.6421 C   0  0  1  0  0  0  0  0  0  0  0  0
   -7.6294   -2.1858  -23.9653 C   0  0  0  0  0  0  0  0  0  0  0  0
   -8.3506   -1.0761  -24.5511 N   0  0  0  0  0  0  0  0  0  0  0  0
   -7.7020    0.1794  -24.8133 C   0  0  0  0  0  0  0  0  0  0  0  0
   -7.6761    1.1559  -23.6983 C   0  0  0  0  0  0  0  0  0  0  0  0
   -7.5748    1.9864  -22.8993 N   0  0  0  0  0  0  0  0  0  0  0  0
   -9.6715   -1.2350  -24.9027 C   0  0  0  0  0  0  0  0  0  0  0  0
  -10.1875   -0.6647  -25.8476 O   0  0  0  0  0  0  0  0  0  0  0  0
  -10.4198   -2.1203  -23.9536 C   0  0  0  0  0  0  0  0  0  0  0  0
  -11.8043   -2.1866  -24.1089 C   0  0  0  0  0  0  0  0  0  0  0  0
  -12.5848   -2.8224  -23.1603 C   0  0  0  0  0  0  0  0  0  0  0  0
  -11.9437   -3.3991  -22.0670 C   0  0  0  0  0  0  0  0  0  0  0  0
  -12.6914   -3.9901  -21.1169 F   0  0  0  0  0  0  0  0  0  0  0  0
  -10.5741   -3.3627  -21.8983 C   0  0  0  0  0  0  0  0  0  0  0  0
   -9.7776   -2.7321  -22.8635 C   0  0  0  0  0  0  0  0  0  0  0  0
   -6.9518   -5.9275  -22.4102 H   0  0  0  0  0  0  0  0  0  0  0  0
   -6.5622   -4.8107  -23.7221 H   0  0  0  0  0  0  0  0  0  0  0  0
   -8.2311   -5.3660  -23.5049 H   0  0  0  0  0  0  0  0  0  0  0  0
   -8.2752   -4.2257  -21.2443 H   0  0  0  0  0  0  0  0  0  0  0  0
   -5.4863   -3.2802  -22.0279 H   0  0  0  0  0  0  0  0  0  0  0  0
   -6.0334   -3.8995  -20.4553 H   0  0  0  0  0  0  0  0  0  0  0  0
   -7.3435   -1.9260  -18.3906 H   0  0  0  0  0  0  0  0  0  0  0  0
   -4.6415    0.9639  -17.2108 H   0  0  0  0  0  0  0  0  0  0  0  0
   -3.1674    2.0747  -18.8222 H   0  0  0  0  0  0  0  0  0  0  0  0
   -2.3252    2.3430  -21.1404 H   0  0  0  0  0  0  0  0  0  0  0  0
   -3.2651    0.9532  -22.9696 H   0  0  0  0  0  0  0  0  0  0  0  0
   -5.0326   -0.6843  -22.5029 H   0  0  0  0  0  0  0  0  0  0  0  0
   -7.6375   -3.0293  -24.6671 H   0  0  0  0  0  0  0  0  0  0  0  0
   -6.5940   -1.8750  -23.8002 H   0  0  0  0  0  0  0  0  0  0  0  0
   -6.6703   -0.0217  -25.1028 H   0  0  0  0  0  0  0  0  0  0  0  0
   -8.2292    0.6160  -25.6627 H   0  0  0  0  0  0  0  0  0  0  0  0
  -12.2373   -1.7012  -24.9798 H   0  0  0  0  0  0  0  0  0  0  0  0
  -13.6684   -2.8652  -23.2246 H   0  0  0  0  0  0  0  0  0  0  0  0
  -10.1483   -3.8183  -21.0104 H   0  0  0  0  0  0  0  0  0  0  0  0
  1  2  1  0
  2  3  1  0
  3  4  1  0
  4  5  1  0
  5  6  2  0
  6  7  1  0
  7  8  2  0
  8  9  1  0
  9 10  2  0
 10 11  1  0
 11 12  2  0
 12 13  1  0
 13 14  2  0
  4 15  1  0
 15 16  2  0
 15 17  1  0
 17 18  1  6
 18 19  1  0
 19 20  1  0
 20 21  1  0
 21 22  3  0
 19 23  1  0
 23 24  2  0
 23 25  1  0
 25 26  2  0
 26 27  1  0
 27 28  2  0
 28 29  1  0
 28 30  1  0
 30 31  2  0
 17  2  1  0
 31 25  1  0
 14  5  1  0
 31 17  1  0
 14  9  1  0
  1 32  1  0
  1 33  1  0
  1 34  1  0
  2 35  1  1
  3 36  1  0
  3 37  1  0
  6 38  1  0
  8 39  1  0
 10 40  1  0
 11 41  1  0
 12 42  1  0
 13 43  1  0
 18 44  1  0
 18 45  1  0
 20 46  1  0
 20 47  1  0
 26 48  1  0
 27 49  1  0
 30 50  1  0
M  END
>  <RMSD>  (11) 
0.06555888614720871

$$$$

     RDKit          3D

 36 40  0  0  0  0  0  0  0  0999 V2000
    6.7814    6.1007   20.9171 C   0  0  0  0  0  0  0  0  0  0  0  0
    7.8244    7.0882   21.4310 C   0  0  0  0  0  0  0  0  0  0  0  0
    8.0228    7.1259   22.9292 C   0  0  0  0  0  0  0  0  0  0  0  0
    8.2151    8.1263   23.5744 O   0  0  0  0  0  0  0  0  0  0  0  0
    7.9915    5.8499   23.6783 N   0  0  1  0  0  0  0  0  0  0  0  0
    6.5634    5.4982   24.1857 C   0  0  0  0  0  0  0  0  0  0  0  0
    6.5762    4.0809   24.6924 C   0  0  0  0  0  0  0  0  0  0  0  0
    6.9755    3.1225   23.5778 C   0  0  0  0  0  0  0  0  0  0  0  0
    8.3542    3.4279   23.0311 C   0  0  0  0  0  0  0  0  0  0  0  0
    9.1766    2.4521   22.4325 C   0  0  0  0  0  0  0  0  0  0  0  0
    8.6705    1.1366   22.1694 N   0  0  0  0  0  0  0  0  0  0  0  0
    9.1355    0.0762   23.0528 C   0  0  0  0  0  0  0  0  0  0  0  0
   10.5552   -0.3869   22.7724 C   0  0  0  0  0  0  0  0  0  0  0  0
   11.5563   -0.1075   23.7033 C   0  0  0  0  0  0  0  0  0  0  0  0
   12.8817   -0.4412   23.4551 C   0  0  0  0  0  0  0  0  0  0  0  0
   13.2305   -1.1249   22.2987 C   0  0  0  0  0  0  0  0  0  0  0  0
   12.2199   -1.4723   21.4135 C   0  0  0  0  0  0  0  0  0  0  0  0
   12.6338   -2.4413   20.0341 Cl  0  0  0  0  0  0  0  0  0  0  0  0
   10.8982   -1.0859   21.6144 C   0  0  0  0  0  0  0  0  0  0  0  0
    7.7542    1.0152   21.1413 C   0  0  0  0  0  0  0  0  0  0  0  0
    7.5991    1.9074   20.3315 O   0  0  0  0  0  0  0  0  0  0  0  0
    6.9229   -0.2778   21.0787 C   0  0  0  0  0  0  0  0  0  0  0  0
    5.8909   -0.1821   19.9968 C   0  0  0  0  0  0  0  0  0  0  0  0
    6.0989   -0.7737   18.7795 C   0  0  0  0  0  0  0  0  0  0  0  0
    5.2922   -0.6421   17.6937 N   0  0  0  0  0  0  0  0  0  0  0  0
    4.2237    0.1060   17.8386 C   0  0  0  0  0  0  0  0  0  0  0  0
    3.8689    0.7652   19.0472 C   0  0  0  0  0  0  0  0  0  0  0  0
    2.7043    1.5647   19.1579 C   0  0  0  0  0  0  0  0  0  0  0  0
    2.3759    2.1641   20.3433 C   0  0  0  0  0  0  0  0  0  0  0  0
    3.2329    2.0332   21.4597 C   0  0  0  0  0  0  0  0  0  0  0  0
    4.3850    1.2911   21.3684 C   0  0  0  0  0  0  0  0  0  0  0  0
    4.7259    0.6227   20.1622 C   0  0  0  0  0  0  0  0  0  0  0  0
   10.5032    2.7301   22.1308 C   0  0  0  0  0  0  0  0  0  0  0  0
   10.9941    4.0236   22.2724 C   0  0  0  0  0  0  0  0  0  0  0  0
   10.1697    5.0224   22.7756 C   0  0  0  0  0  0  0  0  0  0  0  0
    8.8519    4.7235   23.1289 C   0  0  0  0  0  0  0  0  0  0  0  0
  1  2  1  0
  2  3  1  0
  3  4  2  0
  5  3  1  6
  5  6  1  0
  6  7  1  0
  7  8  1  0
  8  9  1  0
  9 10  2  0
 10 11  1  0
 11 12  1  0
 12 13  1  0
 13 14  2  0
 14 15  1  0
 15 16  2  0
 16 17  1  0
 17 18  1  0
 17 19  2  0
 11 20  1  0
 20 21  2  0
 20 22  1  0
 22 23  1  0
 23 24  2  0
 24 25  1  0
 25 26  2  0
 26 27  1  0
 27 28  2  0
 28 29  1  0
 29 30  2  0
 30 31  1  0
 31 32  2  0
 10 33  1  0
 33 34  2  0
 34 35  1  0
 35 36  2  0
 36  5  1  0
 36  9  1  0
 19 13  1  0
 32 23  1  0
 32 27  1  0
M  CHG  1   5   1
M  END
>  <cnnaffinities>  (12) 
[6.28992]

>  <score>  (12) 
6.28992

>  <index>  (12) 
6

>  <Smiles>  (12) 
C(C(C(=O)[N@+]1(C(C(C(c2c(N(C(c3c(c(c(c(Cl)c3[H])[H])[H])[H])([H])[H])C(=O)C(c3c(nc(c4c(c(c(c(c34)[H])[H])[H])[H])[H])[H])([H])[H])c(c(c(c12)[H])[H])[H])([H])[H])([H])[H])([H])[H])[H])([H])[H])([H])([H])[H]

>  <h>  (12) 
<NA>

>  <Training>  (12) 
True

>  <Success>  (12) 
True

>  <enamine_searched>  (12) 
False

>  <enamine_id>  (12) 
nan

$$$$

     RDKit          3D

 36 39  0  0  0  0  0  0  0  0999 V2000
   -7.4111   -4.0793  -23.5377 C   0  0  0  0  0  0  0  0  0  0  0  0
   -6.9196   -3.3772  -22.5174 C   0  0  0  0  0  0  0  0  0  0  0  0
   -7.6116   -2.8257  -21.3000 C   0  0  0  0  0  0  0  0  0  0  0  0
   -7.3851   -1.3772  -21.2357 N   0  0  0  0  0  0  0  0  0  0  0  0
   -8.1743   -0.4396  -21.8983 C   0  0  0  0  0  0  0  0  0  0  0  0
   -8.2554    0.7003  -21.4822 O   0  0  0  0  0  0  0  0  0  0  0  0
   -8.8947   -0.9029  -23.1757 C   0  0  2  0  0  0  0  0  0  0  0  0
   -8.0404   -0.6951  -24.4473 C   0  0  0  0  0  0  0  0  0  0  0  0
   -7.9512    0.7186  -24.8075 N   0  0  0  0  0  0  0  0  0  0  0  0
   -6.7024    1.2700  -25.3116 C   0  0  0  0  0  0  0  0  0  0  0  0
   -6.5992    1.3285  -26.8416 C   0  0  0  0  0  0  0  0  0  0  0  0
   -6.6557    2.3753  -27.4661 O   0  0  0  0  0  0  0  0  0  0  0  0
   -6.4255    0.1336  -27.4661 N   0  0  0  0  0  0  0  0  0  0  0  0
   -6.3832    0.0939  -28.9152 C   0  0  0  0  0  0  0  0  0  0  0  0
   -9.0334    1.5626  -24.7431 C   0  0  0  0  0  0  0  0  0  0  0  0
   -9.0133    2.6958  -25.1956 O   0  0  0  0  0  0  0  0  0  0  0  0
  -10.2501    1.0135  -24.0688 C   0  0  0  0  0  0  0  0  0  0  0  0
  -11.4393    1.7327  -24.1693 C   0  0  0  0  0  0  0  0  0  0  0  0
  -12.6041    1.2369  -23.6155 C   0  0  0  0  0  0  0  0  0  0  0  0
  -12.5603    0.0072  -22.9564 C   0  0  0  0  0  0  0  0  0  0  0  0
  -14.0392   -0.7013  -22.3831 Cl  0  0  0  0  0  0  0  0  0  0  0  0
  -11.3666   -0.6753  -22.7849 C   0  0  0  0  0  0  0  0  0  0  0  0
  -10.1961   -0.1738  -23.3492 C   0  0  0  0  0  0  0  0  0  0  0  0
   -6.5649   -0.8609  -20.1989 C   0  0  0  0  0  0  0  0  0  0  0  0
   -6.9099   -1.0724  -18.8884 C   0  0  0  0  0  0  0  0  0  0  0  0
   -6.2558   -0.5615  -17.8218 N   0  0  0  0  0  0  0  0  0  0  0  0
   -5.2072    0.1885  -18.0898 C   0  0  0  0  0  0  0  0  0  0  0  0
   -4.7356    0.4830  -19.4011 C   0  0  0  0  0  0  0  0  0  0  0  0
   -3.6230    1.3322  -19.6358 C   0  0  0  0  0  0  0  0  0  0  0  0
   -3.2195    1.6184  -20.9126 C   0  0  0  0  0  0  0  0  0  0  0  0
   -3.8952    1.0569  -22.0174 C   0  0  0  0  0  0  0  0  0  0  0  0
   -4.9562    0.2092  -21.8223 C   0  0  0  0  0  0  0  0  0  0  0  0
   -5.4226   -0.0654  -20.5041 C   0  0  0  0  0  0  0  0  0  0  0  0
   -5.4809   -2.8556  -22.4955 C   0  0  0  0  0  0  0  0  0  0  0  0
   -5.0992   -2.3076  -23.5560 O   0  0  0  0  0  0  0  0  0  0  0  0
   -4.8840   -2.9789  -21.4109 O   0  0  0  0  0  0  0  0  0  0  0  0
  1  2  2  0
  2  3  1  0
  3  4  1  0
  4  5  1  0
  5  6  2  0
  7  5  1  1
  7  8  1  0
  8  9  1  0
  9 10  1  0
 10 11  1  0
 11 12  2  0
 11 13  1  0
 13 14  1  0
  9 15  1  0
 15 16  2  0
 15 17  1  0
 17 18  2  0
 18 19  1  0
 19 20  2  0
 20 21  1  0
 20 22  1  0
 22 23  2  0
  4 24  1  0
 24 25  2  0
 25 26  1  0
 26 27  2  0
 27 28  1  0
 28 29  2  0
 29 30  1  0
 30 31  2  0
 31 32  1  0
 32 33  2  0
  2 34  1  0
 34 35  2  0
 34 36  1  0
 23  7  1  0
 33 24  1  0
 23 17  1  0
 33 28  1  0
M  CHG  1  36  -1
M  END
>  <cnnaffinities>  (13) 
[5.77933, 6.07149, 5.99143]

>  <score>  (13) 
5.77933

>  <index>  (13) 
5

>  <Smiles>  (13) 
C(=C(C(N(C(=O)[C@@]1(C(N(C(C(=O)N(C([H])([H])[H])[H])([H])[H])C(=O)c2c(c(c(Cl)c(c12)[H])[H])[H])([H])[H])[H])c1c(nc(c2c(c(c(c(c12)[H])[H])[H])[H])[H])[H])([H])[H])C(=O)[O-])([H])[H]

>  <h>  (13) 
<NA>

>  <Training>  (13) 
True

>  <Success>  (13) 
True

>  <enamine_searched>  (13) 
False

>  <enamine_id>  (13) 
nan

$$$$

     RDKit          3D

 37 39  0  0  0  0  0  0  0  0999 V2000
    8.4747   -1.7639   20.2917 O   0  0  0  0  0  0  0  0  0  0  0  0
    7.5667   -1.5356   21.0797 C   0  0  0  0  0  0  0  0  0  0  0  0
    6.8655   -0.1873   21.0517 C   0  0  0  0  0  0  0  0  0  0  0  0
    5.9510    0.0344   19.8567 C   0  0  0  0  0  0  0  0  0  0  0  0
    6.3070   -0.3281   18.5844 C   0  0  0  0  0  0  0  0  0  0  0  0
    5.6461    0.0340   17.4454 N   0  0  0  0  0  0  0  0  0  0  0  0
    4.6311    0.8553   17.5713 C   0  0  0  0  0  0  0  0  0  0  0  0
    4.1723    1.3482   18.8271 C   0  0  0  0  0  0  0  0  0  0  0  0
    3.2339    2.4093   18.9544 C   0  0  0  0  0  0  0  0  0  0  0  0
    2.6977    2.6982   20.1811 C   0  0  0  0  0  0  0  0  0  0  0  0
    3.0698    1.9426   21.3187 C   0  0  0  0  0  0  0  0  0  0  0  0
    4.0802    1.0183   21.2385 C   0  0  0  0  0  0  0  0  0  0  0  0
    4.7355    0.7802   20.0005 C   0  0  0  0  0  0  0  0  0  0  0  0
    7.1747   -2.4920   22.0044 N   0  0  0  0  0  0  0  0  0  0  0  0
    6.5724   -2.1284   23.2919 C   0  0  0  0  0  0  0  0  0  0  0  0
    7.6420   -1.5435   24.2204 C   0  0  0  0  0  0  0  0  0  0  0  0
    8.8022   -2.5313   24.3905 C   0  0  0  0  0  0  0  0  0  0  0  0
    9.3197   -3.0471   23.0448 C   0  0  0  0  0  0  0  0  0  0  0  0
    8.1616   -3.5639   22.1869 C   0  0  0  0  0  0  0  0  0  0  0  0
    7.6801    0.5550   21.0309 H   0  0  0  0  0  0  0  0  0  0  0  0
    6.3398   -0.0137   21.9858 H   0  0  0  0  0  0  0  0  0  0  0  0
    7.1769   -0.9590   18.4158 H   0  0  0  0  0  0  0  0  0  0  0  0
    4.1361    1.1660   16.6440 H   0  0  0  0  0  0  0  0  0  0  0  0
    2.9811    3.0132   18.0835 H   0  0  0  0  0  0  0  0  0  0  0  0
    1.9875    3.5123   20.2964 H   0  0  0  0  0  0  0  0  0  0  0  0
    2.6005    2.1375   22.2799 H   0  0  0  0  0  0  0  0  0  0  0  0
    4.3772    0.4668   22.1305 H   0  0  0  0  0  0  0  0  0  0  0  0
    6.1537   -3.0502   23.7252 H   0  0  0  0  0  0  0  0  0  0  0  0
    5.7249   -1.4535   23.1388 H   0  0  0  0  0  0  0  0  0  0  0  0
    8.0088   -0.6033   23.7849 H   0  0  0  0  0  0  0  0  0  0  0  0
    7.2112   -1.3022   25.1990 H   0  0  0  0  0  0  0  0  0  0  0  0
    9.6128   -2.0558   24.9586 H   0  0  0  0  0  0  0  0  0  0  0  0
    8.4418   -3.3882   24.9796 H   0  0  0  0  0  0  0  0  0  0  0  0
    9.7994   -2.2291   22.4906 H   0  0  0  0  0  0  0  0  0  0  0  0
   10.0686   -3.8322   23.2080 H   0  0  0  0  0  0  0  0  0  0  0  0
    7.6738   -4.4169   22.6756 H   0  0  0  0  0  0  0  0  0  0  0  0
    8.5104   -3.8741   21.2023 H   0  0  0  0  0  0  0  0  0  0  0  0
  1  2  2  0
  2  3  1  0
  3  4  1  0
  4  5  2  0
  5  6  1  0
  6  7  2  0
  7  8  1  0
  8  9  2  0
  9 10  1  0
 10 11  2  0
 11 12  1  0
 12 13  2  0
  2 14  1  0
 14 15  1  0
 15 16  1  0
 16 17  1  0
 17 18  1  0
 18 19  1  0
 13  4  1  0
 19 14  1  0
 13  8  1  0
  3 20  1  0
  3 21  1  0
  5 22  1  0
  7 23  1  0
  9 24  1  0
 10 25  1  0
 11 26  1  0
 12 27  1  0
 15 28  1  0
 15 29  1  0
 16 30  1  0
 16 31  1  0
 17 32  1  0
 17 33  1  0
 18 34  1  0
 18 35  1  0
 19 36  1  0
 19 37  1  0
M  END
>  <RMSD>  (14) 
0.21078850221096196

$$$$

     RDKit          3D

 43 45  0  0  0  0  0  0  0  0999 V2000
   -9.2549    0.8447  -26.3533 C   0  0  0  0  0  0  0  0  0  0  0  0
   -9.4622   -0.6384  -26.6354 C   0  0  0  0  0  0  0  0  0  0  0  0
   -9.1056   -1.6005  -25.4814 C   0  0  0  0  0  0  0  0  0  0  0  0
  -10.0760   -1.5281  -24.2826 C   0  0  0  0  0  0  0  0  0  0  0  0
   -9.7205   -2.5531  -23.2016 C   0  0  0  0  0  0  0  0  0  0  0  0
   -8.3246   -2.4762  -22.7782 N   0  0  0  0  0  0  0  0  0  0  0  0
   -8.0190   -1.8144  -21.5982 C   0  0  0  0  0  0  0  0  0  0  0  0
   -8.7967   -1.0478  -21.0600 O   0  0  0  0  0  0  0  0  0  0  0  0
   -6.6837   -2.2172  -20.9564 C   0  0  0  0  0  0  0  0  0  0  0  0
   -6.1039   -1.2341  -19.9784 C   0  0  0  0  0  0  0  0  0  0  0  0
   -6.5215   -1.2578  -18.6753 C   0  0  0  0  0  0  0  0  0  0  0  0
   -6.0360   -0.4711  -17.6790 N   0  0  0  0  0  0  0  0  0  0  0  0
   -5.0876    0.3769  -18.0102 C   0  0  0  0  0  0  0  0  0  0  0  0
   -4.5621    0.5246  -19.3233 C   0  0  0  0  0  0  0  0  0  0  0  0
   -3.5519    1.4711  -19.6295 C   0  0  0  0  0  0  0  0  0  0  0  0
   -3.1016    1.6170  -20.9143 C   0  0  0  0  0  0  0  0  0  0  0  0
   -3.6439    0.8200  -21.9470 C   0  0  0  0  0  0  0  0  0  0  0  0
   -4.6128   -0.1134  -21.6760 C   0  0  0  0  0  0  0  0  0  0  0  0
   -5.0994   -0.2905  -20.3512 C   0  0  0  0  0  0  0  0  0  0  0  0
   -7.3989   -2.5538  -23.9057 C   0  0  0  0  0  0  0  0  0  0  0  0
   -7.6823   -1.4325  -24.9145 C   0  0  0  0  0  0  0  0  0  0  0  0
   -8.2136    1.0539  -26.1024 H   0  0  0  0  0  0  0  0  0  0  0  0
   -9.4960    1.4680  -27.2183 H   0  0  0  0  0  0  0  0  0  0  0  0
   -9.8782    1.1873  -25.5246 H   0  0  0  0  0  0  0  0  0  0  0  0
  -10.5100   -0.8128  -26.9153 H   0  0  0  0  0  0  0  0  0  0  0  0
   -8.8619   -0.9137  -27.5122 H   0  0  0  0  0  0  0  0  0  0  0  0
   -9.1727   -2.6124  -25.9236 H   0  0  0  0  0  0  0  0  0  0  0  0
  -10.0473   -0.5309  -23.8183 H   0  0  0  0  0  0  0  0  0  0  0  0
  -11.1146   -1.6941  -24.6007 H   0  0  0  0  0  0  0  0  0  0  0  0
  -10.3576   -2.4037  -22.3307 H   0  0  0  0  0  0  0  0  0  0  0  0
   -9.9095   -3.5687  -23.5827 H   0  0  0  0  0  0  0  0  0  0  0  0
   -5.9522   -2.4836  -21.7206 H   0  0  0  0  0  0  0  0  0  0  0  0
   -6.8923   -3.1589  -20.4277 H   0  0  0  0  0  0  0  0  0  0  0  0
   -7.3020   -1.9618  -18.3733 H   0  0  0  0  0  0  0  0  0  0  0  0
   -4.6838    1.0087  -17.2183 H   0  0  0  0  0  0  0  0  0  0  0  0
   -3.1592    2.0899  -18.8276 H   0  0  0  0  0  0  0  0  0  0  0  0
   -2.3418    2.3565  -21.1487 H   0  0  0  0  0  0  0  0  0  0  0  0
   -3.2926    0.9579  -22.9654 H   0  0  0  0  0  0  0  0  0  0  0  0
   -5.0165   -0.7121  -22.4902 H   0  0  0  0  0  0  0  0  0  0  0  0
   -6.3682   -2.4984  -23.5544 H   0  0  0  0  0  0  0  0  0  0  0  0
   -7.5339   -3.5281  -24.3923 H   0  0  0  0  0  0  0  0  0  0  0  0
   -7.6157   -0.4766  -24.3716 H   0  0  0  0  0  0  0  0  0  0  0  0
   -6.9098   -1.4075  -25.6972 H   0  0  0  0  0  0  0  0  0  0  0  0
  1  2  1  0
  2  3  1  0
  3  4  1  0
  4  5  1  0
  5  6  1  0
  6  7  1  0
  7  8  2  0
  7  9  1  0
  9 10  1  0
 10 11  2  0
 11 12  1  0
 12 13  2  0
 13 14  1  0
 14 15  2  0
 15 16  1  0
 16 17  2  0
 17 18  1  0
 18 19  2  0
  6 20  1  0
 20 21  1  0
 21  3  1  0
 19 10  1  0
 19 14  1  0
  1 22  1  0
  1 23  1  0
  1 24  1  0
  2 25  1  0
  2 26  1  0
  3 27  1  0
  4 28  1  0
  4 29  1  0
  5 30  1  0
  5 31  1  0
  9 32  1  0
  9 33  1  0
 11 34  1  0
 13 35  1  0
 15 36  1  0
 16 37  1  0
 17 38  1  0
 18 39  1  0
 20 40  1  0
 20 41  1  0
 21 42  1  0
 21 43  1  0
M  END
>  <RMSD>  (15) 
0.04192261473055484

$$$$

     RDKit          3D

 26 29  0  0  0  0  0  0  0  0999 V2000
  -10.1000   -6.0158  -27.5600 C   0  0  0  0  0  0  0  0  0  0  0  0
   -8.9758   -5.3145  -26.7880 C   0  0  0  0  0  0  0  0  0  0  0  0
   -9.2252   -5.5330  -25.0302 S   0  0  0  0  0  0  0  0  0  0  0  0
   -9.0507   -6.9344  -24.7202 O   0  0  0  0  0  0  0  0  0  0  0  0
  -10.4727   -4.8436  -24.7078 O   0  0  0  0  0  0  0  0  0  0  0  0
   -7.9502   -4.7103  -24.2682 N   0  0  0  0  0  0  0  0  0  0  0  0
   -8.0611   -4.6983  -22.7657 C   0  0  0  0  0  0  0  0  0  0  0  0
   -8.0650   -3.1563  -22.7628 C   0  0  0  0  0  0  0  0  0  0  0  0
   -7.9914   -3.2243  -24.3125 C   0  0  0  0  0  0  0  0  0  0  0  0
   -6.8676   -2.5275  -22.0601 C   0  0  0  0  0  0  0  0  0  0  0  0
   -5.7044   -2.8115  -22.2153 O   0  0  0  0  0  0  0  0  0  0  0  0
   -7.3687   -1.5408  -21.2106 N   0  0  0  0  0  0  0  0  0  0  0  0
   -6.6003   -0.8680  -20.1984 C   0  0  0  0  0  0  0  0  0  0  0  0
   -6.9122   -1.0640  -18.8752 C   0  0  0  0  0  0  0  0  0  0  0  0
   -6.2211   -0.5464  -17.8256 N   0  0  0  0  0  0  0  0  0  0  0  0
   -5.1823    0.2048  -18.0943 C   0  0  0  0  0  0  0  0  0  0  0  0
   -4.7511    0.5211  -19.4116 C   0  0  0  0  0  0  0  0  0  0  0  0
   -3.6187    1.3563  -19.6361 C   0  0  0  0  0  0  0  0  0  0  0  0
   -3.2269    1.6608  -20.9091 C   0  0  0  0  0  0  0  0  0  0  0  0
   -3.9566    1.1466  -22.0045 C   0  0  0  0  0  0  0  0  0  0  0  0
   -5.0507    0.3392  -21.8116 C   0  0  0  0  0  0  0  0  0  0  0  0
   -5.4785   -0.0159  -20.5013 C   0  0  0  0  0  0  0  0  0  0  0  0
   -8.7643   -1.3867  -21.4062 C   0  0  0  0  0  0  0  0  0  0  0  0
   -9.4439   -0.4683  -21.0101 O   0  0  0  0  0  0  0  0  0  0  0  0
   -9.1711   -2.4552  -22.1684 N   0  0  0  0  0  0  0  0  0  0  0  0
  -10.5651   -2.7135  -22.4920 C   0  0  0  0  0  0  0  0  0  0  0  0
  1  2  1  0
  2  3  1  0
  3  4  2  0
  3  5  2  0
  3  6  1  0
  6  7  1  0
  7  8  1  0
  8  9  1  0
  8 10  1  0
 10 11  2  0
 10 12  1  0
 12 13  1  0
 13 14  2  0
 14 15  1  0
 15 16  2  0
 16 17  1  0
 17 18  2  0
 18 19  1  0
 19 20  2  0
 20 21  1  0
 21 22  2  0
 12 23  1  0
 23 24  2  0
 23 25  1  0
 25 26  1  0
  9  6  1  0
 22 13  1  0
 25  8  1  0
 22 17  1  0
M  END
>  <cnnaffinities>  (16) 
[5.36909, 5.37184, 5.38035, 5.4033, 5.39372, 5.35691, 5.3847, 5.39211, 5.31055, 5.38269, 5.38765, 5.38517, 5.2838, 5.28403, 5.28387, 5.28631]

>  <score>  (16) 
5.36909

>  <index>  (16) 
7

>  <Smiles>  (16) 
C(C(S(=O)(=O)N1C(C2(C1([H])[H])C(=O)N(c1c(nc(c3c(c(c(c(c13)[H])[H])[H])[H])[H])[H])C(=O)N2C([H])([H])[H])([H])[H])([H])[H])([H])([H])[H]

>  <h>  (16) 
<NA>

>  <Training>  (16) 
True

>  <Success>  (16) 
True

>  <enamine_searched>  (16) 
False

>  <enamine_id>  (16) 
nan

$$$$

     RDKit          3D

 60 64  0  0  0  0  0  0  0  0999 V2000
   -6.7629    2.6517  -23.2213 C   0  0  0  0  0  0  0  0  0  0  0  0
   -7.3106    1.4756  -23.8584 N   0  0  0  0  0  0  0  0  0  0  0  0
   -6.8335    1.0648  -25.0520 C   0  0  0  0  0  0  0  0  0  0  0  0
   -6.0155    1.6974  -25.7052 O   0  0  0  0  0  0  0  0  0  0  0  0
   -7.3287   -0.2860  -25.5801 C   0  0  0  0  0  0  0  0  0  0  0  0
   -8.1474   -1.0827  -24.6894 N   0  0  0  0  0  0  0  0  0  0  0  0
   -7.5847   -2.2952  -24.1199 C   0  0  0  0  0  0  0  0  0  0  0  0
   -8.2305   -2.6432  -22.7546 C   0  0  2  0  0  0  0  0  0  0  0  0
   -7.8765   -1.5405  -21.7248 C   0  0  0  0  0  0  0  0  0  0  0  0
   -8.4061   -0.4540  -21.5913 O   0  0  0  0  0  0  0  0  0  0  0  0
   -6.8131   -1.9834  -20.9688 N   0  0  0  0  0  0  0  0  0  0  0  0
   -6.1780   -1.1528  -20.0050 C   0  0  0  0  0  0  0  0  0  0  0  0
   -6.5470   -1.2426  -18.6875 C   0  0  0  0  0  0  0  0  0  0  0  0
   -6.0146   -0.5017  -17.6826 N   0  0  0  0  0  0  0  0  0  0  0  0
   -5.0748    0.3599  -17.9998 C   0  0  0  0  0  0  0  0  0  0  0  0
   -4.5714    0.5407  -19.3221 C   0  0  0  0  0  0  0  0  0  0  0  0
   -3.5533    1.4876  -19.6291 C   0  0  0  0  0  0  0  0  0  0  0  0
   -3.0976    1.6214  -20.9140 C   0  0  0  0  0  0  0  0  0  0  0  0
   -3.6260    0.8174  -21.9517 C   0  0  0  0  0  0  0  0  0  0  0  0
   -4.6203   -0.0910  -21.6832 C   0  0  0  0  0  0  0  0  0  0  0  0
   -5.1276   -0.2473  -20.3622 C   0  0  0  0  0  0  0  0  0  0  0  0
   -6.3474   -3.3054  -21.3497 C   0  0  0  0  0  0  0  0  0  0  0  0
   -7.5592   -3.8808  -22.0981 C   0  0  2  0  0  0  0  0  0  0  0  0
   -7.2069   -5.0448  -23.0095 C   0  0  0  0  0  0  0  0  0  0  0  0
   -8.3518   -5.4929  -23.6974 O   0  0  0  0  0  0  0  0  0  0  0  0
   -8.0344   -6.5158  -24.6109 C   0  0  0  0  0  0  0  0  0  0  0  0
   -9.7253   -2.7153  -22.9786 C   0  0  0  0  0  0  0  0  0  0  0  0
  -10.5517   -3.5835  -22.2556 C   0  0  0  0  0  0  0  0  0  0  0  0
  -11.9261   -3.5071  -22.3951 C   0  0  0  0  0  0  0  0  0  0  0  0
  -12.9272   -4.5712  -21.4473 Cl  0  0  0  0  0  0  0  0  0  0  0  0
  -12.5254   -2.5832  -23.2550 C   0  0  0  0  0  0  0  0  0  0  0  0
  -11.7111   -1.7310  -23.9804 C   0  0  0  0  0  0  0  0  0  0  0  0
  -10.3223   -1.7932  -23.8550 C   0  0  0  0  0  0  0  0  0  0  0  0
   -9.4930   -0.8359  -24.6634 C   0  0  0  0  0  0  0  0  0  0  0  0
   -9.9732    0.1252  -25.2494 O   0  0  0  0  0  0  0  0  0  0  0  0
   -6.8656    3.5426  -23.8489 H   0  0  0  0  0  0  0  0  0  0  0  0
   -7.2925    2.8055  -22.2798 H   0  0  0  0  0  0  0  0  0  0  0  0
   -5.6999    2.5096  -22.9994 H   0  0  0  0  0  0  0  0  0  0  0  0
   -8.1026    1.0188  -23.4260 H   0  0  0  0  0  0  0  0  0  0  0  0
   -6.4330   -0.8606  -25.8341 H   0  0  0  0  0  0  0  0  0  0  0  0
   -7.8659   -0.1087  -26.5185 H   0  0  0  0  0  0  0  0  0  0  0  0
   -6.5105   -2.1352  -23.9819 H   0  0  0  0  0  0  0  0  0  0  0  0
   -7.7231   -3.1359  -24.8133 H   0  0  0  0  0  0  0  0  0  0  0  0
   -7.3290   -1.9376  -18.3911 H   0  0  0  0  0  0  0  0  0  0  0  0
   -4.6573    0.9644  -17.1922 H   0  0  0  0  0  0  0  0  0  0  0  0
   -3.1550    2.1093  -18.8278 H   0  0  0  0  0  0  0  0  0  0  0  0
   -2.3295    2.3522  -21.1559 H   0  0  0  0  0  0  0  0  0  0  0  0
   -3.2748    0.9426  -22.9750 H   0  0  0  0  0  0  0  0  0  0  0  0
   -5.0345   -0.7013  -22.4822 H   0  0  0  0  0  0  0  0  0  0  0  0
   -5.4584   -3.2806  -22.0056 H   0  0  0  0  0  0  0  0  0  0  0  0
   -6.0808   -3.8845  -20.4630 H   0  0  0  0  0  0  0  0  0  0  0  0
   -8.2454   -4.2531  -21.3375 H   0  0  0  0  0  0  0  0  0  0  0  0
   -6.4393   -4.7282  -23.7305 H   0  0  0  0  0  0  0  0  0  0  0  0
   -6.7750   -5.8737  -22.4241 H   0  0  0  0  0  0  0  0  0  0  0  0
   -8.9604   -6.8551  -25.0827 H   0  0  0  0  0  0  0  0  0  0  0  0
   -7.3444   -6.1682  -25.3966 H   0  0  0  0  0  0  0  0  0  0  0  0
   -7.5554   -7.3725  -24.1122 H   0  0  0  0  0  0  0  0  0  0  0  0
  -10.1259   -4.3351  -21.5984 H   0  0  0  0  0  0  0  0  0  0  0  0
  -13.6090   -2.5345  -23.3302 H   0  0  0  0  0  0  0  0  0  0  0  0
  -12.1398   -0.9986  -24.6574 H   0  0  0  0  0  0  0  0  0  0  0  0
  1  2  1  0
  2  3  1  0
  3  4  2  0
  3  5  1  0
  5  6  1  0
  6  7  1  0
  8  7  1  6
  8  9  1  0
  9 10  2  0
  9 11  1  0
 11 12  1  0
 12 13  2  0
 13 14  1  0
 14 15  2  0
 15 16  1  0
 16 17  2  0
 17 18  1  0
 18 19  2  0
 19 20  1  0
 20 21  2  0
 11 22  1  0
 22 23  1  0
 23 24  1  0
 24 25  1  0
 25 26  1  0
  8 27  1  0
 27 28  2  0
 28 29  1  0
 29 30  1  0
 29 31  2  0
 31 32  1  0
 32 33  2  0
 33 34  1  0
 34 35  2  0
 34  6  1  0
 23  8  1  0
 33 27  1  0
 21 12  1  0
 21 16  1  0
  1 36  1  0
  1 37  1  0
  1 38  1  0
  2 39  1  0
  5 40  1  0
  5 41  1  0
  7 42  1  0
  7 43  1  0
 13 44  1  0
 15 45  1  0
 17 46  1  0
 18 47  1  0
 19 48  1  0
 20 49  1  0
 22 50  1  0
 22 51  1  0
 23 52  1  1
 24 53  1  0
 24 54  1  0
 26 55  1  0
 26 56  1  0
 26 57  1  0
 28 58  1  0
 31 59  1  0
 32 60  1  0
M  END
>  <RMSD>  (17) 
0.05748075434404469

$$$$

     RDKit          3D

 66 71  0  0  0  0  0  0  0  0999 V2000
    7.0602   -3.2914   23.5041 C   0  0  0  0  0  0  0  0  0  0  0  0
    7.3498   -2.2870   22.3965 C   0  0  1  0  0  0  0  0  0  0  0  0
    6.1366   -1.9295   21.5289 C   0  0  0  0  0  0  0  0  0  0  0  0
    6.5322   -0.6625   20.9390 N   0  0  0  0  0  0  0  0  0  0  0  0
    5.8824   -0.0578   19.8294 C   0  0  0  0  0  0  0  0  0  0  0  0
    6.3051   -0.3465   18.5577 C   0  0  0  0  0  0  0  0  0  0  0  0
    5.7655    0.1754   17.4269 N   0  0  0  0  0  0  0  0  0  0  0  0
    4.7631    1.0125   17.5670 C   0  0  0  0  0  0  0  0  0  0  0  0
    4.2013    1.3821   18.8243 C   0  0  0  0  0  0  0  0  0  0  0  0
    3.1164    2.2974   18.9387 C   0  0  0  0  0  0  0  0  0  0  0  0
    2.6067    2.6161   20.1685 C   0  0  0  0  0  0  0  0  0  0  0  0
    3.1448    2.0366   21.3409 C   0  0  0  0  0  0  0  0  0  0  0  0
    4.2029    1.1651   21.2601 C   0  0  0  0  0  0  0  0  0  0  0  0
    4.7663    0.8226   19.9987 C   0  0  0  0  0  0  0  0  0  0  0  0
    7.5382   -0.0256   21.6327 C   0  0  0  0  0  0  0  0  0  0  0  0
    8.0056    1.0543   21.3271 O   0  0  0  0  0  0  0  0  0  0  0  0
    7.9215   -0.9122   22.8451 C   0  0  1  0  0  0  0  0  0  0  0  0
    7.2031   -0.3802   24.1142 C   0  0  0  0  0  0  0  0  0  0  0  0
    7.6693    0.9452   24.4797 N   0  0  0  0  0  0  0  0  0  0  0  0
    6.7730    1.8248   25.2054 C   0  0  0  0  0  0  0  0  0  0  0  0
    6.2131    3.0242   24.4343 C   0  0  0  0  0  0  0  0  0  0  0  0
    5.3312    3.7037   24.9394 O   0  0  0  0  0  0  0  0  0  0  0  0
    6.6856    3.2263   23.1814 N   0  0  0  0  0  0  0  0  0  0  0  0
    6.1098    4.2621   22.3461 C   0  0  0  0  0  0  0  0  0  0  0  0
    6.5670    5.6277   22.7494 C   0  0  0  0  0  0  0  0  0  0  0  0
    7.8667    6.0574   22.8812 C   0  0  0  0  0  0  0  0  0  0  0  0
    7.7461    7.3994   23.2687 C   0  0  0  0  0  0  0  0  0  0  0  0
    6.4763    7.7771   23.3808 N   0  0  0  0  0  0  0  0  0  0  0  0
    5.7699    6.6827   23.0511 N   0  0  0  0  0  0  0  0  0  0  0  0
    4.3224    6.6810   23.0628 C   0  0  0  0  0  0  0  0  0  0  0  0
    8.9974    1.2719   24.4415 C   0  0  0  0  0  0  0  0  0  0  0  0
    9.3992    2.3485   24.8618 O   0  0  0  0  0  0  0  0  0  0  0  0
    9.9182    0.2504   23.8333 C   0  0  0  0  0  0  0  0  0  0  0  0
   11.2953    0.4309   23.9866 C   0  0  0  0  0  0  0  0  0  0  0  0
   12.1800   -0.4849   23.4404 C   0  0  0  0  0  0  0  0  0  0  0  0
   11.6878   -1.5935   22.7441 C   0  0  0  0  0  0  0  0  0  0  0  0
   10.3222   -1.7692   22.5892 C   0  0  0  0  0  0  0  0  0  0  0  0
    9.4113   -0.8473   23.1169 C   0  0  0  0  0  0  0  0  0  0  0  0
    6.2382   -2.9516   24.1416 H   0  0  0  0  0  0  0  0  0  0  0  0
    7.9293   -3.4378   24.1542 H   0  0  0  0  0  0  0  0  0  0  0  0
    6.7800   -4.2686   23.0978 H   0  0  0  0  0  0  0  0  0  0  0  0
    8.0773   -2.7347   21.7153 H   0  0  0  0  0  0  0  0  0  0  0  0
    5.2266   -1.8541   22.1504 H   0  0  0  0  0  0  0  0  0  0  0  0
    5.9432   -2.6714   20.7502 H   0  0  0  0  0  0  0  0  0  0  0  0
    7.1400   -1.0282   18.4084 H   0  0  0  0  0  0  0  0  0  0  0  0
    4.3379    1.4419   16.6571 H   0  0  0  0  0  0  0  0  0  0  0  0
    2.7087    2.7457   18.0341 H   0  0  0  0  0  0  0  0  0  0  0  0
    1.7874    3.3248   20.2604 H   0  0  0  0  0  0  0  0  0  0  0  0
    2.7497    2.3109   22.3169 H   0  0  0  0  0  0  0  0  0  0  0  0
    4.6262    0.7315   22.1633 H   0  0  0  0  0  0  0  0  0  0  0  0
    7.3660   -1.0772   24.9500 H   0  0  0  0  0  0  0  0  0  0  0  0
    6.1257   -0.3199   23.9260 H   0  0  0  0  0  0  0  0  0  0  0  0
    5.9049    1.2415   25.5318 H   0  0  0  0  0  0  0  0  0  0  0  0
    7.2645    2.1910   26.1136 H   0  0  0  0  0  0  0  0  0  0  0  0
    7.5708    2.8398   22.8872 H   0  0  0  0  0  0  0  0  0  0  0  0
    6.4387    4.0398   21.3221 H   0  0  0  0  0  0  0  0  0  0  0  0
    5.0197    4.1706   22.3676 H   0  0  0  0  0  0  0  0  0  0  0  0
    8.7588    5.4652   22.7007 H   0  0  0  0  0  0  0  0  0  0  0  0
    8.5472    8.0935   23.4674 H   0  0  0  0  0  0  0  0  0  0  0  0
    3.9336    5.9492   23.7766 H   0  0  0  0  0  0  0  0  0  0  0  0
    3.9813    7.6754   23.3357 H   0  0  0  0  0  0  0  0  0  0  0  0
    3.9267    6.4360   22.0730 H   0  0  0  0  0  0  0  0  0  0  0  0
   11.6537    1.2955   24.5403 H   0  0  0  0  0  0  0  0  0  0  0  0
   13.2544   -0.3436   23.5411 H   0  0  0  0  0  0  0  0  0  0  0  0
   12.3669   -2.3189   22.3017 H   0  0  0  0  0  0  0  0  0  0  0  0
    9.9619   -2.6418   22.0520 H   0  0  0  0  0  0  0  0  0  0  0  0
  1  2  1  0
  2  3  1  0
  3  4  1  0
  4  5  1  0
  5  6  2  0
  6  7  1  0
  7  8  2  0
  8  9  1  0
  9 10  2  0
 10 11  1  0
 11 12  2  0
 12 13  1  0
 13 14  2  0
  4 15  1  0
 15 16  2  0
 15 17  1  0
 17 18  1  1
 18 19  1  0
 19 20  1  0
 20 21  1  0
 21 22  2  0
 21 23  1  0
 23 24  1  0
 24 25  1  0
 25 26  2  0
 26 27  1  0
 27 28  2  0
 28 29  1  0
 29 30  1  0
 19 31  1  0
 31 32  2  0
 31 33  1  0
 33 34  2  0
 34 35  1  0
 35 36  2  0
 36 37  1  0
 37 38  2  0
 17  2  1  0
 29 25  1  0
 38 33  1  0
 14  5  1  0
 38 17  1  0
 14  9  1  0
  1 39  1  0
  1 40  1  0
  1 41  1  0
  2 42  1  6
  3 43  1  0
  3 44  1  0
  6 45  1  0
  8 46  1  0
 10 47  1  0
 11 48  1  0
 12 49  1  0
 13 50  1  0
 18 51  1  0
 18 52  1  0
 20 53  1  0
 20 54  1  0
 23 55  1  0
 24 56  1  0
 24 57  1  0
 26 58  1  0
 27 59  1  0
 30 60  1  0
 30 61  1  0
 30 62  1  0
 34 63  1  0
 35 64  1  0
 36 65  1  0
 37 66  1  0
M  END
>  <RMSD>  (18) 
0.17239169414406938

$$$$

     RDKit          3D

 41 43  0  0  0  0  0  0  0  0999 V2000
  -12.6359   -3.2677  -23.1080 C   0  0  0  0  0  0  0  0  0  0  0  0
  -11.1415   -3.1427  -22.8132 C   0  0  1  0  0  0  0  0  0  0  0  0
  -10.6257   -4.3789  -22.1004 C   0  0  0  0  0  0  0  0  0  0  0  0
   -9.3655   -4.7950  -22.0038 C   0  0  0  0  0  0  0  0  0  0  0  0
   -8.1840   -4.1245  -22.6774 C   0  0  0  0  0  0  0  0  0  0  0  0
   -8.2665   -2.6685  -22.7408 N   0  0  0  0  0  0  0  0  0  0  0  0
   -8.0054   -1.8810  -21.6238 C   0  0  0  0  0  0  0  0  0  0  0  0
   -8.7372   -0.9874  -21.2461 O   0  0  0  0  0  0  0  0  0  0  0  0
   -6.6748   -2.2311  -20.9473 C   0  0  0  0  0  0  0  0  0  0  0  0
   -6.1192   -1.2137  -19.9897 C   0  0  0  0  0  0  0  0  0  0  0  0
   -6.4465   -1.3187  -18.6682 C   0  0  0  0  0  0  0  0  0  0  0  0
   -5.9802   -0.5253  -17.6687 N   0  0  0  0  0  0  0  0  0  0  0  0
   -5.1217    0.4066  -18.0097 C   0  0  0  0  0  0  0  0  0  0  0  0
   -4.6397    0.6100  -19.3342 C   0  0  0  0  0  0  0  0  0  0  0  0
   -3.5994    1.5291  -19.6462 C   0  0  0  0  0  0  0  0  0  0  0  0
   -3.0578    1.5685  -20.9025 C   0  0  0  0  0  0  0  0  0  0  0  0
   -3.6252    0.7947  -21.9343 C   0  0  0  0  0  0  0  0  0  0  0  0
   -4.6897   -0.0306  -21.6858 C   0  0  0  0  0  0  0  0  0  0  0  0
   -5.1753   -0.2094  -20.3649 C   0  0  0  0  0  0  0  0  0  0  0  0
   -9.0273   -2.1181  -23.8559 C   0  0  0  0  0  0  0  0  0  0  0  0
  -10.3645   -2.8157  -24.0963 C   0  0  0  0  0  0  0  0  0  0  0  0
  -13.1985   -3.4589  -22.1883 H   0  0  0  0  0  0  0  0  0  0  0  0
  -13.0266   -2.3437  -23.5503 H   0  0  0  0  0  0  0  0  0  0  0  0
  -12.8322   -4.0882  -23.8083 H   0  0  0  0  0  0  0  0  0  0  0  0
  -11.0119   -2.2970  -22.1274 H   0  0  0  0  0  0  0  0  0  0  0  0
  -11.3910   -4.9902  -21.6204 H   0  0  0  0  0  0  0  0  0  0  0  0
   -9.1508   -5.6851  -21.4081 H   0  0  0  0  0  0  0  0  0  0  0  0
   -8.1087   -4.4983  -23.7056 H   0  0  0  0  0  0  0  0  0  0  0  0
   -7.2562   -4.4221  -22.1786 H   0  0  0  0  0  0  0  0  0  0  0  0
   -6.8218   -3.1710  -20.3971 H   0  0  0  0  0  0  0  0  0  0  0  0
   -5.9485   -2.4513  -21.7383 H   0  0  0  0  0  0  0  0  0  0  0  0
   -7.1401   -2.1049  -18.3677 H   0  0  0  0  0  0  0  0  0  0  0  0
   -4.7420    1.0206  -17.1939 H   0  0  0  0  0  0  0  0  0  0  0  0
   -3.2580    2.2287  -18.8851 H   0  0  0  0  0  0  0  0  0  0  0  0
   -2.1553    2.1340  -21.1183 H   0  0  0  0  0  0  0  0  0  0  0  0
   -3.1966    0.8384  -22.9261 H   0  0  0  0  0  0  0  0  0  0  0  0
   -5.1698   -0.5462  -22.5123 H   0  0  0  0  0  0  0  0  0  0  0  0
   -9.1811   -1.0571  -23.6488 H   0  0  0  0  0  0  0  0  0  0  0  0
   -8.4030   -2.1951  -24.7580 H   0  0  0  0  0  0  0  0  0  0  0  0
  -10.2061   -3.7309  -24.6773 H   0  0  0  0  0  0  0  0  0  0  0  0
  -10.9656   -2.1631  -24.7430 H   0  0  0  0  0  0  0  0  0  0  0  0
  1  2  1  0
  2  3  1  0
  3  4  2  0
  4  5  1  0
  5  6  1  0
  6  7  1  0
  7  8  2  0
  7  9  1  0
  9 10  1  0
 10 11  2  0
 11 12  1  0
 12 13  2  0
 13 14  1  0
 14 15  2  0
 15 16  1  0
 16 17  2  0
 17 18  1  0
 18 19  2  0
  6 20  1  0
 20 21  1  0
 21  2  1  0
 19 10  1  0
 19 14  1  0
  1 22  1  0
  1 23  1  0
  1 24  1  0
  2 25  1  1
  3 26  1  0
  4 27  1  0
  5 28  1  0
  5 29  1  0
  9 30  1  0
  9 31  1  0
 11 32  1  0
 13 33  1  0
 15 34  1  0
 16 35  1  0
 17 36  1  0
 18 37  1  0
 20 38  1  0
 20 39  1  0
 21 40  1  0
 21 41  1  0
M  END
>  <RMSD>  (19) 
0.11110148513150474

$$$$

     RDKit          3D

 57 62  0  0  0  0  0  0  0  0999 V2000
   -7.2328   -5.0332  -23.0360 C   0  0  0  0  0  0  0  0  0  0  0  0
   -7.5626   -3.8778  -22.1002 C   0  0  1  0  0  0  0  0  0  0  0  0
   -6.3547   -3.2983  -21.3559 C   0  0  0  0  0  0  0  0  0  0  0  0
   -6.8119   -1.9713  -20.9782 N   0  0  0  0  0  0  0  0  0  0  0  0
   -6.1746   -1.1563  -20.0044 C   0  0  0  0  0  0  0  0  0  0  0  0
   -6.5444   -1.2460  -18.6857 C   0  0  0  0  0  0  0  0  0  0  0  0
   -6.0139   -0.5021  -17.6818 N   0  0  0  0  0  0  0  0  0  0  0  0
   -5.0730    0.3597  -17.9987 C   0  0  0  0  0  0  0  0  0  0  0  0
   -4.5725    0.5392  -19.3211 C   0  0  0  0  0  0  0  0  0  0  0  0
   -3.5582    1.4898  -19.6314 C   0  0  0  0  0  0  0  0  0  0  0  0
   -3.1060    1.6258  -20.9154 C   0  0  0  0  0  0  0  0  0  0  0  0
   -3.6318    0.8178  -21.9472 C   0  0  0  0  0  0  0  0  0  0  0  0
   -4.6273   -0.0892  -21.6832 C   0  0  0  0  0  0  0  0  0  0  0  0
   -5.1247   -0.2505  -20.3606 C   0  0  0  0  0  0  0  0  0  0  0  0
   -7.8822   -1.5251  -21.7294 C   0  0  0  0  0  0  0  0  0  0  0  0
   -8.4144   -0.4464  -21.6010 O   0  0  0  0  0  0  0  0  0  0  0  0
   -8.2346   -2.6370  -22.7534 C   0  0  1  0  0  0  0  0  0  0  0  0
   -7.5897   -2.2816  -24.1203 C   0  0  0  0  0  0  0  0  0  0  0  0
   -8.1665   -1.0798  -24.6974 N   0  0  0  0  0  0  0  0  0  0  0  0
   -7.3275   -0.2829  -25.5701 C   0  0  0  0  0  0  0  0  0  0  0  0
   -6.6762    0.8714  -24.8848 C   0  0  0  0  0  0  0  0  0  0  0  0
   -5.4419    1.3740  -25.1080 C   0  0  0  0  0  0  0  0  0  0  0  0
   -5.3166    2.4844  -24.3046 N   0  0  0  0  0  0  0  0  0  0  0  0
   -6.4394    2.6449  -23.5941 C   0  0  0  0  0  0  0  0  0  0  0  0
   -7.2777    1.6597  -23.9299 N   0  0  0  0  0  0  0  0  0  0  0  0
   -9.5051   -0.8179  -24.6490 C   0  0  0  0  0  0  0  0  0  0  0  0
   -9.9975    0.1497  -25.2167 O   0  0  0  0  0  0  0  0  0  0  0  0
  -10.3321   -1.7831  -23.8468 C   0  0  0  0  0  0  0  0  0  0  0  0
  -11.7214   -1.7243  -23.9721 C   0  0  0  0  0  0  0  0  0  0  0  0
  -12.5305   -2.5790  -23.2502 C   0  0  0  0  0  0  0  0  0  0  0  0
  -11.9202   -3.5023  -22.4102 C   0  0  0  0  0  0  0  0  0  0  0  0
  -12.6914   -4.3369  -21.6943 F   0  0  0  0  0  0  0  0  0  0  0  0
  -10.5511   -3.5894  -22.2637 C   0  0  0  0  0  0  0  0  0  0  0  0
   -9.7301   -2.7110  -22.9779 C   0  0  0  0  0  0  0  0  0  0  0  0
   -6.4504   -4.7542  -23.7485 H   0  0  0  0  0  0  0  0  0  0  0  0
   -8.1084   -5.3424  -23.6175 H   0  0  0  0  0  0  0  0  0  0  0  0
   -6.8758   -5.9036  -22.4774 H   0  0  0  0  0  0  0  0  0  0  0  0
   -8.2258   -4.2580  -21.3167 H   0  0  0  0  0  0  0  0  0  0  0  0
   -5.4710   -3.2732  -22.0169 H   0  0  0  0  0  0  0  0  0  0  0  0
   -6.0985   -3.8855  -20.4707 H   0  0  0  0  0  0  0  0  0  0  0  0
   -7.3300   -1.9403  -18.3931 H   0  0  0  0  0  0  0  0  0  0  0  0
   -4.6507    0.9666  -17.1941 H   0  0  0  0  0  0  0  0  0  0  0  0
   -3.1509    2.1119  -18.8380 H   0  0  0  0  0  0  0  0  0  0  0  0
   -2.3335    2.3533  -21.1522 H   0  0  0  0  0  0  0  0  0  0  0  0
   -3.2620    0.9275  -22.9618 H   0  0  0  0  0  0  0  0  0  0  0  0
   -5.0385   -0.6980  -22.4833 H   0  0  0  0  0  0  0  0  0  0  0  0
   -6.5121   -2.1253  -23.9914 H   0  0  0  0  0  0  0  0  0  0  0  0
   -7.7293   -3.1138  -24.8244 H   0  0  0  0  0  0  0  0  0  0  0  0
   -7.9304    0.0649  -26.4173 H   0  0  0  0  0  0  0  0  0  0  0  0
   -6.5358   -0.9208  -25.9803 H   0  0  0  0  0  0  0  0  0  0  0  0
   -4.6689    1.0328  -25.7869 H   0  0  0  0  0  0  0  0  0  0  0  0
   -4.4892    3.0641  -24.2588 H   0  0  0  0  0  0  0  0  0  0  0  0
   -6.6220    3.4300  -22.8729 H   0  0  0  0  0  0  0  0  0  0  0  0
   -8.2204    1.5325  -23.5777 H   0  0  0  0  0  0  0  0  0  0  0  0
  -12.1644   -0.9997  -24.6452 H   0  0  0  0  0  0  0  0  0  0  0  0
  -13.6136   -2.5400  -23.3197 H   0  0  0  0  0  0  0  0  0  0  0  0
  -10.1536   -4.3420  -21.5925 H   0  0  0  0  0  0  0  0  0  0  0  0
  1  2  1  0
  2  3  1  0
  3  4  1  0
  4  5  1  0
  5  6  2  0
  6  7  1  0
  7  8  2  0
  8  9  1  0
  9 10  2  0
 10 11  1  0
 11 12  2  0
 12 13  1  0
 13 14  2  0
  4 15  1  0
 15 16  2  0
 15 17  1  0
 17 18  1  6
 18 19  1  0
 19 20  1  0
 20 21  1  0
 21 22  2  0
 22 23  1  0
 23 24  2  0
 24 25  1  0
 19 26  1  0
 26 27  2  0
 26 28  1  0
 28 29  2  0
 29 30  1  0
 30 31  2  0
 31 32  1  0
 31 33  1  0
 33 34  2  0
 17  2  1  0
 25 21  1  0
 34 28  1  0
 14  5  1  0
 34 17  1  0
 14  9  1  0
  1 35  1  0
  1 36  1  0
  1 37  1  0
  2 38  1  1
  3 39  1  0
  3 40  1  0
  6 41  1  0
  8 42  1  0
 10 43  1  0
 11 44  1  0
 12 45  1  0
 13 46  1  0
 18 47  1  0
 18 48  1  0
 20 49  1  0
 20 50  1  0
 22 51  1  0
 23 52  1  0
 24 53  1  0
 25 54  1  0
 29 55  1  0
 30 56  1  0
 33 57  1  0
M  CHG  1  23   1
M  END
>  <RMSD>  (20) 
0.053328352103565034

$$$$

     RDKit          3D

 58 63  0  0  0  0  0  0  0  0999 V2000
   -4.6121    3.7593  -24.1896 C   0  0  0  0  0  0  0  0  0  0  0  0
   -5.6328    2.6780  -24.2782 C   0  0  0  0  0  0  0  0  0  0  0  0
   -5.6662    1.6490  -25.2502 C   0  0  0  0  0  0  0  0  0  0  0  0
   -6.7604    0.9267  -24.9038 C   0  0  0  0  0  0  0  0  0  0  0  0
   -7.3341   -0.2882  -25.5630 C   0  0  0  0  0  0  0  0  0  0  0  0
   -8.1632   -1.0914  -24.7011 N   0  0  0  0  0  0  0  0  0  0  0  0
   -7.5895   -2.2923  -24.1197 C   0  0  0  0  0  0  0  0  0  0  0  0
   -8.2333   -2.6370  -22.7518 C   0  0  2  0  0  0  0  0  0  0  0  0
   -7.8825   -1.5313  -21.7189 C   0  0  0  0  0  0  0  0  0  0  0  0
   -8.4106   -0.4537  -21.5731 O   0  0  0  0  0  0  0  0  0  0  0  0
   -6.8097   -1.9766  -20.9727 N   0  0  0  0  0  0  0  0  0  0  0  0
   -6.1766   -1.1525  -20.0056 C   0  0  0  0  0  0  0  0  0  0  0  0
   -6.5463   -1.2426  -18.6883 C   0  0  0  0  0  0  0  0  0  0  0  0
   -6.0134   -0.5016  -17.6835 N   0  0  0  0  0  0  0  0  0  0  0  0
   -5.0729    0.3596  -18.0002 C   0  0  0  0  0  0  0  0  0  0  0  0
   -4.5699    0.5401  -19.3223 C   0  0  0  0  0  0  0  0  0  0  0  0
   -3.5540    1.4877  -19.6308 C   0  0  0  0  0  0  0  0  0  0  0  0
   -3.1036    1.6254  -20.9155 C   0  0  0  0  0  0  0  0  0  0  0  0
   -3.6390    0.8252  -21.9528 C   0  0  0  0  0  0  0  0  0  0  0  0
   -4.6243   -0.0904  -21.6833 C   0  0  0  0  0  0  0  0  0  0  0  0
   -5.1238   -0.2494  -20.3621 C   0  0  0  0  0  0  0  0  0  0  0  0
   -6.3487   -3.2988  -21.3522 C   0  0  0  0  0  0  0  0  0  0  0  0
   -7.5589   -3.8747  -22.0993 C   0  0  2  0  0  0  0  0  0  0  0  0
   -7.2312   -5.0332  -23.0317 C   0  0  0  0  0  0  0  0  0  0  0  0
   -9.7277   -2.7100  -22.9768 C   0  0  0  0  0  0  0  0  0  0  0  0
  -10.5511   -3.5867  -22.2635 C   0  0  0  0  0  0  0  0  0  0  0  0
  -11.9200   -3.4996  -22.4142 C   0  0  0  0  0  0  0  0  0  0  0  0
  -12.6932   -4.3334  -21.6976 F   0  0  0  0  0  0  0  0  0  0  0  0
  -12.5324   -2.5768  -23.2561 C   0  0  0  0  0  0  0  0  0  0  0  0
  -11.7172   -1.7216  -23.9728 C   0  0  0  0  0  0  0  0  0  0  0  0
  -10.3276   -1.7778  -23.8420 C   0  0  0  0  0  0  0  0  0  0  0  0
   -9.5019   -0.8141  -24.6478 C   0  0  0  0  0  0  0  0  0  0  0  0
   -9.9945    0.1326  -25.2413 O   0  0  0  0  0  0  0  0  0  0  0  0
   -7.3393    1.4512  -23.8254 O   0  0  0  0  0  0  0  0  0  0  0  0
   -6.6321    2.5692  -23.4270 N   0  0  0  0  0  0  0  0  0  0  0  0
   -4.9768    4.6210  -23.6316 H   0  0  0  0  0  0  0  0  0  0  0  0
   -3.7128    3.3818  -23.6969 H   0  0  0  0  0  0  0  0  0  0  0  0
   -4.3077    4.0722  -25.1901 H   0  0  0  0  0  0  0  0  0  0  0  0
   -4.9857    1.4740  -26.0760 H   0  0  0  0  0  0  0  0  0  0  0  0
   -6.4925   -0.8859  -25.9211 H   0  0  0  0  0  0  0  0  0  0  0  0
   -7.9028    0.0027  -26.4514 H   0  0  0  0  0  0  0  0  0  0  0  0
   -6.5148   -2.1243  -23.9866 H   0  0  0  0  0  0  0  0  0  0  0  0
   -7.7235   -3.1282  -24.8195 H   0  0  0  0  0  0  0  0  0  0  0  0
   -7.3297   -1.9374  -18.3931 H   0  0  0  0  0  0  0  0  0  0  0  0
   -4.6541    0.9639  -17.1928 H   0  0  0  0  0  0  0  0  0  0  0  0
   -3.1534    2.1088  -18.8307 H   0  0  0  0  0  0  0  0  0  0  0  0
   -2.3291    2.3550  -21.1486 H   0  0  0  0  0  0  0  0  0  0  0  0
   -3.2667    0.9295  -22.9692 H   0  0  0  0  0  0  0  0  0  0  0  0
   -5.0371   -0.7067  -22.4787 H   0  0  0  0  0  0  0  0  0  0  0  0
   -6.0873   -3.8826  -20.4674 H   0  0  0  0  0  0  0  0  0  0  0  0
   -5.4641   -3.2761  -22.0106 H   0  0  0  0  0  0  0  0  0  0  0  0
   -8.2353   -4.2438  -21.3246 H   0  0  0  0  0  0  0  0  0  0  0  0
   -6.4516   -4.7572  -23.7467 H   0  0  0  0  0  0  0  0  0  0  0  0
   -8.1048   -5.3416  -23.6146 H   0  0  0  0  0  0  0  0  0  0  0  0
   -6.8755   -5.9058  -22.4764 H   0  0  0  0  0  0  0  0  0  0  0  0
  -10.1479   -4.3389  -21.5933 H   0  0  0  0  0  0  0  0  0  0  0  0
  -13.6162   -2.5390  -23.3228 H   0  0  0  0  0  0  0  0  0  0  0  0
  -12.1499   -0.9927  -24.6488 H   0  0  0  0  0  0  0  0  0  0  0  0
  1  2  1  0
  2  3  1  0
  3  4  2  0
  4  5  1  0
  5  6  1  0
  6  7  1  0
  8  7  1  6
  8  9  1  0
  9 10  2  0
  9 11  1  0
 11 12  1  0
 12 13  2  0
 13 14  1  0
 14 15  2  0
 15 16  1  0
 16 17  2  0
 17 18  1  0
 18 19  2  0
 19 20  1  0
 20 21  2  0
 11 22  1  0
 22 23  1  0
 23 24  1  0
  8 25  1  0
 25 26  2  0
 26 27  1  0
 27 28  1  0
 27 29  2  0
 29 30  1  0
 30 31  2  0
 31 32  1  0
 32 33  2  0
  4 34  1  0
 34 35  1  0
 35  2  2  0
 32  6  1  0
 23  8  1  0
 31 25  1  0
 21 12  1  0
 21 16  1  0
  1 36  1  0
  1 37  1  0
  1 38  1  0
  3 39  1  0
  5 40  1  0
  5 41  1  0
  7 42  1  0
  7 43  1  0
 13 44  1  0
 15 45  1  0
 17 46  1  0
 18 47  1  0
 19 48  1  0
 20 49  1  0
 22 50  1  0
 22 51  1  0
 23 52  1  1
 24 53  1  0
 24 54  1  0
 24 55  1  0
 26 56  1  0
 29 57  1  0
 30 58  1  0
M  END
>  <RMSD>  (21) 
0.056292195293873644

$$$$

     RDKit          3D

 48 52  0  0  0  0  0  0  0  0999 V2000
   -9.4778   -1.8278  -23.5318 C   0  0  0  0  0  0  0  0  0  0  0  0
   -8.3636   -2.1211  -22.6493 N   0  0  0  0  0  0  0  0  0  0  0  0
   -7.9840   -1.2538  -21.6639 C   0  0  0  0  0  0  0  0  0  0  0  0
   -8.4490   -0.1684  -21.4038 O   0  0  0  0  0  0  0  0  0  0  0  0
   -6.9355   -1.8700  -20.9647 N   0  0  0  0  0  0  0  0  0  0  0  0
   -6.1850   -1.1519  -19.9857 C   0  0  0  0  0  0  0  0  0  0  0  0
   -6.5396   -1.2288  -18.6670 C   0  0  0  0  0  0  0  0  0  0  0  0
   -5.9953   -0.4751  -17.6763 N   0  0  0  0  0  0  0  0  0  0  0  0
   -5.0700    0.3910  -18.0113 C   0  0  0  0  0  0  0  0  0  0  0  0
   -4.5703    0.5485  -19.3347 C   0  0  0  0  0  0  0  0  0  0  0  0
   -3.5600    1.4963  -19.6506 C   0  0  0  0  0  0  0  0  0  0  0  0
   -3.0903    1.5931  -20.9313 C   0  0  0  0  0  0  0  0  0  0  0  0
   -3.6006    0.7475  -21.9441 C   0  0  0  0  0  0  0  0  0  0  0  0
   -4.5879   -0.1646  -21.6649 C   0  0  0  0  0  0  0  0  0  0  0  0
   -5.1188   -0.2655  -20.3524 C   0  0  0  0  0  0  0  0  0  0  0  0
   -6.6958   -3.1617  -21.4286 C   0  0  0  0  0  0  0  0  0  0  0  0
   -5.9031   -3.9455  -20.9638 O   0  0  0  0  0  0  0  0  0  0  0  0
   -7.6399   -3.3629  -22.6183 C   0  0  0  0  0  0  0  0  0  0  0  0
   -8.4508   -4.6739  -22.5823 C   0  0  0  0  0  0  0  0  0  0  0  0
   -7.7025   -5.1846  -23.7770 N   0  0  0  0  0  0  0  0  0  0  0  0
   -8.6599   -5.6610  -25.0965 S   0  0  0  0  0  0  0  0  0  0  0  0
   -9.5432   -6.6960  -24.5942 O   0  0  0  0  0  0  0  0  0  0  0  0
   -9.1828   -4.4499  -25.7246 O   0  0  0  0  0  0  0  0  0  0  0  0
   -7.5586   -6.4162  -26.2721 C   0  0  0  0  0  0  0  0  0  0  0  0
   -7.4424   -7.8029  -26.3104 C   0  0  0  0  0  0  0  0  0  0  0  0
   -6.6178   -8.3877  -27.2674 C   0  0  0  0  0  0  0  0  0  0  0  0
   -5.9247   -7.5958  -28.1797 C   0  0  0  0  0  0  0  0  0  0  0  0
   -6.0577   -6.2107  -28.1363 C   0  0  0  0  0  0  0  0  0  0  0  0
   -6.8830   -5.6158  -27.1892 C   0  0  0  0  0  0  0  0  0  0  0  0
   -6.9671   -3.9009  -23.9056 C   0  0  0  0  0  0  0  0  0  0  0  0
   -9.2153   -1.0159  -24.2167 H   0  0  0  0  0  0  0  0  0  0  0  0
   -9.7385   -2.7169  -24.1113 H   0  0  0  0  0  0  0  0  0  0  0  0
  -10.3326   -1.5072  -22.9306 H   0  0  0  0  0  0  0  0  0  0  0  0
   -7.3018   -1.9376  -18.3554 H   0  0  0  0  0  0  0  0  0  0  0  0
   -4.6744    1.0239  -17.2153 H   0  0  0  0  0  0  0  0  0  0  0  0
   -3.1900    2.1449  -18.8587 H   0  0  0  0  0  0  0  0  0  0  0  0
   -2.3252    2.3241  -21.1823 H   0  0  0  0  0  0  0  0  0  0  0  0
   -3.2206    0.8336  -22.9580 H   0  0  0  0  0  0  0  0  0  0  0  0
   -4.9869   -0.8161  -22.4367 H   0  0  0  0  0  0  0  0  0  0  0  0
   -8.2151   -5.2230  -21.6788 H   0  0  0  0  0  0  0  0  0  0  0  0
   -9.5361   -4.5915  -22.7184 H   0  0  0  0  0  0  0  0  0  0  0  0
   -8.0095   -8.4074  -25.6080 H   0  0  0  0  0  0  0  0  0  0  0  0
   -6.5268   -9.4695  -27.3107 H   0  0  0  0  0  0  0  0  0  0  0  0
   -5.2840   -8.0576  -28.9276 H   0  0  0  0  0  0  0  0  0  0  0  0
   -5.5259   -5.5915  -28.8523 H   0  0  0  0  0  0  0  0  0  0  0  0
   -7.0189   -4.5391  -27.1724 H   0  0  0  0  0  0  0  0  0  0  0  0
   -7.2082   -3.3313  -24.8094 H   0  0  0  0  0  0  0  0  0  0  0  0
   -5.8911   -4.0596  -23.8162 H   0  0  0  0  0  0  0  0  0  0  0  0
  1  2  1  0
  2  3  1  0
  3  4  2  0
  3  5  1  0
  5  6  1  0
  6  7  2  0
  7  8  1  0
  8  9  2  0
  9 10  1  0
 10 11  2  0
 11 12  1  0
 12 13  2  0
 13 14  1  0
 14 15  2  0
  5 16  1  0
 16 17  2  0
 16 18  1  0
 18 19  1  0
 19 20  1  0
 20 21  1  0
 21 22  2  0
 21 23  2  0
 21 24  1  0
 24 25  2  0
 25 26  1  0
 26 27  2  0
 27 28  1  0
 28 29  2  0
 20 30  1  0
 18  2  1  0
 29 24  1  0
 15  6  1  0
 30 18  1  0
 15 10  1  0
  1 31  1  0
  1 32  1  0
  1 33  1  0
  7 34  1  0
  9 35  1  0
 11 36  1  0
 12 37  1  0
 13 38  1  0
 14 39  1  0
 19 40  1  0
 19 41  1  0
 25 42  1  0
 26 43  1  0
 27 44  1  0
 28 45  1  0
 29 46  1  0
 30 47  1  0
 30 48  1  0
M  END
>  <RMSD>  (22) 
1.5758826142476707

$$$$

     RDKit          3D

 76 82  0  0  0  0  0  0  0  0999 V2000
  -10.1739   -0.6431  -25.8293 O   0  0  0  0  0  0  0  0  0  0  0  0
   -9.6487   -1.1942  -24.8767 C   0  0  0  0  0  0  0  0  0  0  0  0
  -10.4047   -2.1017  -23.9430 C   0  0  0  0  0  0  0  0  0  0  0  0
  -11.7871   -2.1791  -24.1034 C   0  0  0  0  0  0  0  0  0  0  0  0
  -12.5683   -2.8206  -23.1602 C   0  0  0  0  0  0  0  0  0  0  0  0
  -11.9380   -3.4055  -22.0612 C   0  0  0  0  0  0  0  0  0  0  0  0
  -12.9080   -4.1719  -20.8304 Cl  0  0  0  0  0  0  0  0  0  0  0  0
  -10.5649   -3.3632  -21.9005 C   0  0  0  0  0  0  0  0  0  0  0  0
   -9.7641   -2.7342  -22.8640 C   0  0  0  0  0  0  0  0  0  0  0  0
   -8.2729   -2.6348  -22.6431 C   0  0  1  0  0  0  0  0  0  0  0  0
   -7.6174   -2.1449  -23.9556 C   0  0  0  0  0  0  0  0  0  0  0  0
   -8.3393   -1.0133  -24.5083 N   0  0  0  0  0  0  0  0  0  0  0  0
   -7.6679    0.2327  -24.8253 C   0  0  0  0  0  0  0  0  0  0  0  0
   -7.6537    1.2342  -23.6574 C   0  0  0  0  0  0  0  0  0  0  0  0
   -7.0295    2.5476  -24.0755 N   0  0  0  0  0  0  0  0  0  0  0  0
   -7.9519    3.4847  -24.8335 C   0  0  0  0  0  0  0  0  0  0  0  0
   -8.9009    4.2270  -23.8991 C   0  0  0  0  0  0  0  0  0  0  0  0
   -8.1931    4.9731  -22.9301 O   0  0  0  0  0  0  0  0  0  0  0  0
   -7.3410    4.1583  -22.1501 C   0  0  0  0  0  0  0  0  0  0  0  0
   -6.3500    3.3577  -22.9933 C   0  0  0  0  0  0  0  0  0  0  0  0
   -7.9639   -1.6090  -21.5306 C   0  0  0  0  0  0  0  0  0  0  0  0
   -8.6072   -0.6295  -21.2065 O   0  0  0  0  0  0  0  0  0  0  0  0
   -6.7858   -1.9937  -20.9382 N   0  0  0  0  0  0  0  0  0  0  0  0
   -6.1542   -1.1694  -19.9818 C   0  0  0  0  0  0  0  0  0  0  0  0
   -6.5511   -1.2367  -18.6718 C   0  0  0  0  0  0  0  0  0  0  0  0
   -6.0260   -0.4844  -17.6730 N   0  0  0  0  0  0  0  0  0  0  0  0
   -5.0804    0.3621  -18.0080 C   0  0  0  0  0  0  0  0  0  0  0  0
   -4.5865    0.5408  -19.3336 C   0  0  0  0  0  0  0  0  0  0  0  0
   -3.5663    1.4782  -19.6376 C   0  0  0  0  0  0  0  0  0  0  0  0
   -3.1025    1.6184  -20.9156 C   0  0  0  0  0  0  0  0  0  0  0  0
   -3.6335    0.8298  -21.9583 C   0  0  0  0  0  0  0  0  0  0  0  0
   -4.6306   -0.0784  -21.6921 C   0  0  0  0  0  0  0  0  0  0  0  0
   -5.1318   -0.2509  -20.3695 C   0  0  0  0  0  0  0  0  0  0  0  0
   -6.3305   -3.3134  -21.3225 C   0  0  0  0  0  0  0  0  0  0  0  0
   -7.5718   -3.8916  -22.0269 C   0  0  2  0  0  0  0  0  0  0  0  0
   -7.2810   -5.0995  -22.9316 C   0  0  0  0  0  0  0  0  0  0  0  0
   -6.8490   -6.2718  -22.1918 N   0  0  0  0  0  0  0  0  0  0  0  0
   -5.5569   -6.5620  -21.8946 C   0  0  0  0  0  0  0  0  0  0  0  0
   -4.5844   -5.7967  -22.4163 N   0  0  0  0  0  0  0  0  0  0  0  0
   -3.3367   -6.1231  -22.0750 C   0  0  0  0  0  0  0  0  0  0  0  0
   -3.0410   -7.1849  -21.2332 C   0  0  0  0  0  0  0  0  0  0  0  0
   -4.1321   -7.9108  -20.7637 C   0  0  0  0  0  0  0  0  0  0  0  0
   -5.3837   -7.6266  -21.0813 N   0  0  0  0  0  0  0  0  0  0  0  0
  -12.2245   -1.6978  -24.9720 H   0  0  0  0  0  0  0  0  0  0  0  0
  -13.6499   -2.8543  -23.2472 H   0  0  0  0  0  0  0  0  0  0  0  0
  -10.1376   -3.8071  -21.0069 H   0  0  0  0  0  0  0  0  0  0  0  0
   -6.5720   -1.8590  -23.7993 H   0  0  0  0  0  0  0  0  0  0  0  0
   -7.6463   -2.9691  -24.6794 H   0  0  0  0  0  0  0  0  0  0  0  0
   -6.6403    0.0018  -25.1279 H   0  0  0  0  0  0  0  0  0  0  0  0
   -8.1894    0.6434  -25.6931 H   0  0  0  0  0  0  0  0  0  0  0  0
   -7.0680    0.8245  -22.8306 H   0  0  0  0  0  0  0  0  0  0  0  0
   -8.6648    1.4081  -23.2886 H   0  0  0  0  0  0  0  0  0  0  0  0
   -6.2765    2.2762  -24.7248 H   0  0  0  0  0  0  0  0  0  0  0  0
   -7.3214    4.2181  -25.3443 H   0  0  0  0  0  0  0  0  0  0  0  0
   -8.5126    2.9247  -25.5841 H   0  0  0  0  0  0  0  0  0  0  0  0
   -9.6089    3.5302  -23.4213 H   0  0  0  0  0  0  0  0  0  0  0  0
   -9.4840    4.9538  -24.4695 H   0  0  0  0  0  0  0  0  0  0  0  0
   -6.7959    4.8362  -21.4859 H   0  0  0  0  0  0  0  0  0  0  0  0
   -7.9315    3.4806  -21.5164 H   0  0  0  0  0  0  0  0  0  0  0  0
   -5.7768    2.6787  -22.3539 H   0  0  0  0  0  0  0  0  0  0  0  0
   -5.6578    4.0397  -23.4986 H   0  0  0  0  0  0  0  0  0  0  0  0
   -7.3431   -1.9299  -18.3926 H   0  0  0  0  0  0  0  0  0  0  0  0
   -4.6379    0.9587  -17.2100 H   0  0  0  0  0  0  0  0  0  0  0  0
   -3.1661    2.0776  -18.8267 H   0  0  0  0  0  0  0  0  0  0  0  0
   -2.3246    2.3405  -21.1422 H   0  0  0  0  0  0  0  0  0  0  0  0
   -3.2626    0.9552  -22.9716 H   0  0  0  0  0  0  0  0  0  0  0  0
   -5.0207   -0.6801  -22.5075 H   0  0  0  0  0  0  0  0  0  0  0  0
   -6.0142   -3.8816  -20.4419 H   0  0  0  0  0  0  0  0  0  0  0  0
   -5.4696   -3.2493  -22.0048 H   0  0  0  0  0  0  0  0  0  0  0  0
   -8.2485   -4.2414  -21.2415 H   0  0  0  0  0  0  0  0  0  0  0  0
   -6.4753   -4.8486  -23.6235 H   0  0  0  0  0  0  0  0  0  0  0  0
   -8.1697   -5.3673  -23.5188 H   0  0  0  0  0  0  0  0  0  0  0  0
   -7.5251   -6.8881  -21.7704 H   0  0  0  0  0  0  0  0  0  0  0  0
   -2.5437   -5.5039  -22.4984 H   0  0  0  0  0  0  0  0  0  0  0  0
   -2.0294   -7.4496  -20.9591 H   0  0  0  0  0  0  0  0  0  0  0  0
   -4.0221   -8.7653  -20.0970 H   0  0  0  0  0  0  0  0  0  0  0  0
  1  2  2  0
  2  3  1  0
  3  4  2  0
  4  5  1  0
  5  6  2  0
  6  7  1  0
  6  8  1  0
  8  9  2  0
  9 10  1  0
 10 11  1  6
 11 12  1  0
 12 13  1  0
 13 14  1  0
 14 15  1  0
 15 16  1  0
 16 17  1  0
 17 18  1  0
 18 19  1  0
 19 20  1  0
 10 21  1  0
 21 22  2  0
 21 23  1  0
 23 24  1  0
 24 25  2  0
 25 26  1  0
 26 27  2  0
 27 28  1  0
 28 29  2  0
 29 30  1  0
 30 31  2  0
 31 32  1  0
 32 33  2  0
 23 34  1  0
 34 35  1  0
 35 36  1  0
 36 37  1  0
 37 38  1  0
 38 39  2  0
 39 40  1  0
 40 41  2  0
 41 42  1  0
 42 43  2  0
 12  2  1  0
 20 15  1  0
 33 24  1  0
 43 38  1  0
  9  3  1  0
 35 10  1  0
 33 28  1  0
  4 44  1  0
  5 45  1  0
  8 46  1  0
 11 47  1  0
 11 48  1  0
 13 49  1  0
 13 50  1  0
 14 51  1  0
 14 52  1  0
 15 53  1  0
 16 54  1  0
 16 55  1  0
 17 56  1  0
 17 57  1  0
 19 58  1  0
 19 59  1  0
 20 60  1  0
 20 61  1  0
 25 62  1  0
 27 63  1  0
 29 64  1  0
 30 65  1  0
 31 66  1  0
 32 67  1  0
 34 68  1  0
 34 69  1  0
 35 70  1  1
 36 71  1  0
 36 72  1  0
 37 73  1  0
 40 74  1  0
 41 75  1  0
 42 76  1  0
M  CHG  1  15   1
M  END
>  <RMSD>  (23) 
0.0651664243558384

$$$$

     RDKit          3D

 69 74  0  0  0  0  0  0  0  0999 V2000
   -6.7654    2.6460  -23.1945 C   0  0  0  0  0  0  0  0  0  0  0  0
   -7.3405    1.4737  -23.8272 N   0  0  0  0  0  0  0  0  0  0  0  0
   -6.8538    1.0510  -25.0137 C   0  0  0  0  0  0  0  0  0  0  0  0
   -6.0267    1.6744  -25.6676 O   0  0  0  0  0  0  0  0  0  0  0  0
   -7.3739   -0.2803  -25.5662 C   0  0  0  0  0  0  0  0  0  0  0  0
   -8.1871   -1.0838  -24.6844 N   0  0  0  0  0  0  0  0  0  0  0  0
   -7.6022   -2.2867  -24.1141 C   0  0  0  0  0  0  0  0  0  0  0  0
   -8.2227   -2.6374  -22.7406 C   0  0  2  0  0  0  0  0  0  0  0  0
   -7.8461   -1.5445  -21.7089 C   0  0  0  0  0  0  0  0  0  0  0  0
   -8.3689   -0.4563  -21.5650 O   0  0  0  0  0  0  0  0  0  0  0  0
   -6.7874   -2.0010  -20.9563 N   0  0  0  0  0  0  0  0  0  0  0  0
   -6.1611   -1.1696  -19.9933 C   0  0  0  0  0  0  0  0  0  0  0  0
   -6.5477   -1.2396  -18.6805 C   0  0  0  0  0  0  0  0  0  0  0  0
   -6.0223   -0.4860  -17.6787 N   0  0  0  0  0  0  0  0  0  0  0  0
   -5.0785    0.3655  -18.0049 C   0  0  0  0  0  0  0  0  0  0  0  0
   -4.5853    0.5431  -19.3305 C   0  0  0  0  0  0  0  0  0  0  0  0
   -3.5633    1.4804  -19.6348 C   0  0  0  0  0  0  0  0  0  0  0  0
   -3.0976    1.6177  -20.9125 C   0  0  0  0  0  0  0  0  0  0  0  0
   -3.6315    0.8235  -21.9517 C   0  0  0  0  0  0  0  0  0  0  0  0
   -4.6303   -0.0803  -21.6879 C   0  0  0  0  0  0  0  0  0  0  0  0
   -5.1359   -0.2461  -20.3669 C   0  0  0  0  0  0  0  0  0  0  0  0
   -6.3227   -3.3194  -21.3445 C   0  0  0  0  0  0  0  0  0  0  0  0
   -7.5513   -3.8703  -22.0775 C   0  0  2  0  0  0  0  0  0  0  0  0
   -7.2851   -5.1029  -22.9346 C   0  0  0  0  0  0  0  0  0  0  0  0
   -6.2165   -4.9344  -23.9170 N   0  0  0  0  0  0  0  0  0  0  0  0
   -6.3047   -5.4954  -25.1695 C   0  0  0  0  0  0  0  0  0  0  0  0
   -7.5265   -5.6615  -25.8497 C   0  0  0  0  0  0  0  0  0  0  0  0
   -7.4542   -6.2552  -27.0927 C   0  0  0  0  0  0  0  0  0  0  0  0
   -6.3066   -6.6601  -27.6420 N   0  0  0  0  0  0  0  0  0  0  0  0
   -5.2055   -6.4030  -26.9338 C   0  0  0  0  0  0  0  0  0  0  0  0
   -3.8970   -6.7719  -27.5618 C   0  0  0  0  0  0  0  0  0  0  0  0
   -5.1455   -5.8363  -25.7323 N   0  0  0  0  0  0  0  0  0  0  0  0
   -9.7255   -2.7080  -22.9374 C   0  0  0  0  0  0  0  0  0  0  0  0
  -10.5586   -3.5801  -22.2225 C   0  0  0  0  0  0  0  0  0  0  0  0
  -11.9341   -3.4999  -22.3573 C   0  0  0  0  0  0  0  0  0  0  0  0
  -12.9471   -4.5683  -21.4237 Cl  0  0  0  0  0  0  0  0  0  0  0  0
  -12.5385   -2.5718  -23.2046 C   0  0  0  0  0  0  0  0  0  0  0  0
  -11.7263   -1.7223  -23.9284 C   0  0  0  0  0  0  0  0  0  0  0  0
  -10.3394   -1.7959  -23.8110 C   0  0  0  0  0  0  0  0  0  0  0  0
   -9.5364   -0.8603  -24.6617 C   0  0  0  0  0  0  0  0  0  0  0  0
  -10.0600    0.0611  -25.2800 O   0  0  0  0  0  0  0  0  0  0  0  0
   -7.2964    2.8231  -22.2561 H   0  0  0  0  0  0  0  0  0  0  0  0
   -5.6995    2.4927  -22.9779 H   0  0  0  0  0  0  0  0  0  0  0  0
   -6.8637    3.5309  -23.8321 H   0  0  0  0  0  0  0  0  0  0  0  0
   -7.9477    0.8829  -23.2697 H   0  0  0  0  0  0  0  0  0  0  0  0
   -6.4873   -0.8520  -25.8606 H   0  0  0  0  0  0  0  0  0  0  0  0
   -7.9436   -0.0589  -26.4732 H   0  0  0  0  0  0  0  0  0  0  0  0
   -7.7491   -3.1325  -24.7935 H   0  0  0  0  0  0  0  0  0  0  0  0
   -6.5274   -2.1243  -23.9928 H   0  0  0  0  0  0  0  0  0  0  0  0
   -7.3390   -1.9285  -18.3885 H   0  0  0  0  0  0  0  0  0  0  0  0
   -4.6351    0.9635  -17.2052 H   0  0  0  0  0  0  0  0  0  0  0  0
   -3.1651    2.0843  -18.8259 H   0  0  0  0  0  0  0  0  0  0  0  0
   -2.3224    2.3418  -21.1465 H   0  0  0  0  0  0  0  0  0  0  0  0
   -3.2708    0.9527  -22.9687 H   0  0  0  0  0  0  0  0  0  0  0  0
   -5.0305   -0.6837  -22.4975 H   0  0  0  0  0  0  0  0  0  0  0  0
   -5.4388   -3.2504  -21.9988 H   0  0  0  0  0  0  0  0  0  0  0  0
   -6.0454   -3.9170  -20.4702 H   0  0  0  0  0  0  0  0  0  0  0  0
   -8.2567   -4.1767  -21.2993 H   0  0  0  0  0  0  0  0  0  0  0  0
   -7.0785   -5.9570  -22.2761 H   0  0  0  0  0  0  0  0  0  0  0  0
   -8.2070   -5.3460  -23.4625 H   0  0  0  0  0  0  0  0  0  0  0  0
   -5.2654   -4.9906  -23.5699 H   0  0  0  0  0  0  0  0  0  0  0  0
   -8.4672   -5.3006  -25.4490 H   0  0  0  0  0  0  0  0  0  0  0  0
   -8.3465   -6.4053  -27.7036 H   0  0  0  0  0  0  0  0  0  0  0  0
   -3.4933   -5.9083  -28.0970 H   0  0  0  0  0  0  0  0  0  0  0  0
   -4.0796   -7.5719  -28.2722 H   0  0  0  0  0  0  0  0  0  0  0  0
   -3.1631   -7.0835  -26.8200 H   0  0  0  0  0  0  0  0  0  0  0  0
  -10.1572   -4.3345  -21.5557 H   0  0  0  0  0  0  0  0  0  0  0  0
  -13.6206   -2.5327  -23.2819 H   0  0  0  0  0  0  0  0  0  0  0  0
  -12.1427   -0.9824  -24.6036 H   0  0  0  0  0  0  0  0  0  0  0  0
  1  2  1  0
  2  3  1  0
  3  4  2  0
  3  5  1  0
  5  6  1  0
  6  7  1  0
  8  7  1  6
  8  9  1  0
  9 10  2  0
  9 11  1  0
 11 12  1  0
 12 13  2  0
 13 14  1  0
 14 15  2  0
 15 16  1  0
 16 17  2  0
 17 18  1  0
 18 19  2  0
 19 20  1  0
 20 21  2  0
 11 22  1  0
 22 23  1  0
 23 24  1  0
 24 25  1  0
 25 26  1  0
 26 27  2  0
 27 28  1  0
 28 29  2  0
 29 30  1  0
 30 31  1  0
 30 32  2  0
  8 33  1  0
 33 34  2  0
 34 35  1  0
 35 36  1  0
 35 37  2  0
 37 38  1  0
 38 39  2  0
 39 40  1  0
 40 41  2  0
 40  6  1  0
 23  8  1  0
 32 26  1  0
 39 33  1  0
 21 12  1  0
 21 16  1  0
  1 42  1  0
  1 43  1  0
  1 44  1  0
  2 45  1  0
  5 46  1  0
  5 47  1  0
  7 48  1  0
  7 49  1  0
 13 50  1  0
 15 51  1  0
 17 52  1  0
 18 53  1  0
 19 54  1  0
 20 55  1  0
 22 56  1  0
 22 57  1  0
 23 58  1  1
 24 59  1  0
 24 60  1  0
 25 61  1  0
 27 62  1  0
 28 63  1  0
 31 64  1  0
 31 65  1  0
 31 66  1  0
 34 67  1  0
 37 68  1  0
 38 69  1  0
M  END
>  <RMSD>  (24) 
0.06371462313891907

$$$$

     RDKit          3D

 72 77  0  0  0  0  0  0  0  0999 V2000
    4.5803    6.4575   25.0061 C   0  0  0  0  0  0  0  0  0  0  0  0
    5.8429    6.5893   24.1552 C   0  0  1  0  0  0  0  0  0  0  0  0
    6.7263    5.3401   24.0936 C   0  0  0  0  0  0  0  0  0  0  0  0
    6.1007    4.2395   23.2602 N   0  0  0  0  0  0  0  0  0  0  0  0
    6.9754    3.0366   23.1485 C   0  0  0  0  0  0  0  0  0  0  0  0
    7.0399    2.2698   24.4775 C   0  0  0  0  0  0  0  0  0  0  0  0
    7.8199    1.0530   24.3518 N   0  0  0  0  0  0  0  0  0  0  0  0
    7.2105   -0.1978   23.9310 C   0  0  0  0  0  0  0  0  0  0  0  0
    7.9743   -0.8525   22.7417 C   0  0  2  0  0  0  0  0  0  0  0  0
    7.6538   -0.1237   21.4174 C   0  0  0  0  0  0  0  0  0  0  0  0
    8.2644    0.7839   20.8834 O   0  0  0  0  0  0  0  0  0  0  0  0
    6.5030   -0.6880   20.9123 N   0  0  0  0  0  0  0  0  0  0  0  0
    5.8512   -0.0944   19.8084 C   0  0  0  0  0  0  0  0  0  0  0  0
    6.3179   -0.3351   18.5411 C   0  0  0  0  0  0  0  0  0  0  0  0
    5.7823    0.1972   17.4159 N   0  0  0  0  0  0  0  0  0  0  0  0
    4.7628    1.0104   17.5755 C   0  0  0  0  0  0  0  0  0  0  0  0
    4.1998    1.3682   18.8342 C   0  0  0  0  0  0  0  0  0  0  0  0
    3.1204    2.2865   18.9425 C   0  0  0  0  0  0  0  0  0  0  0  0
    2.6188    2.6240   20.1709 C   0  0  0  0  0  0  0  0  0  0  0  0
    3.1568    2.0566   21.3476 C   0  0  0  0  0  0  0  0  0  0  0  0
    4.2044    1.1671   21.2695 C   0  0  0  0  0  0  0  0  0  0  0  0
    4.7520    0.7959   20.0051 C   0  0  0  0  0  0  0  0  0  0  0  0
    6.1261   -1.9350   21.5586 C   0  0  0  0  0  0  0  0  0  0  0  0
    7.3848   -2.2536   22.3780 C   0  0  2  0  0  0  0  0  0  0  0  0
    7.1749   -3.2512   23.5066 C   0  0  0  0  0  0  0  0  0  0  0  0
    9.4525   -0.8055   23.0392 C   0  0  0  0  0  0  0  0  0  0  0  0
   10.3390   -1.5573   22.2604 C   0  0  0  0  0  0  0  0  0  0  0  0
   11.6989   -1.4668   22.4832 C   0  0  0  0  0  0  0  0  0  0  0  0
   12.7705   -2.3716   21.4573 Cl  0  0  0  0  0  0  0  0  0  0  0  0
   12.2268   -0.6782   23.5044 C   0  0  0  0  0  0  0  0  0  0  0  0
   11.3577    0.0765   24.2655 C   0  0  0  0  0  0  0  0  0  0  0  0
    9.9909    0.0601   24.0026 C   0  0  0  0  0  0  0  0  0  0  0  0
    9.1452    1.0892   24.6928 C   0  0  0  0  0  0  0  0  0  0  0  0
    9.6227    1.9228   25.4463 O   0  0  0  0  0  0  0  0  0  0  0  0
    5.6985    4.7992   21.9221 C   0  0  0  0  0  0  0  0  0  0  0  0
    4.7801    5.9923   22.1444 C   0  0  2  0  0  0  0  0  0  0  0  0
    4.2568    6.6321   20.8853 C   0  0  0  0  0  0  0  0  0  0  0  0
    5.5075    6.9990   22.8394 O   0  0  0  0  0  0  0  0  0  0  0  0
    3.9766    5.5893   24.7147 H   0  0  0  0  0  0  0  0  0  0  0  0
    3.9675    7.3555   24.8662 H   0  0  0  0  0  0  0  0  0  0  0  0
    4.8177    6.3586   26.0683 H   0  0  0  0  0  0  0  0  0  0  0  0
    6.4630    7.3993   24.5587 H   0  0  0  0  0  0  0  0  0  0  0  0
    7.6832    5.6071   23.6252 H   0  0  0  0  0  0  0  0  0  0  0  0
    6.9176    4.9640   25.0998 H   0  0  0  0  0  0  0  0  0  0  0  0
    5.2343    3.9036   23.7304 H   0  0  0  0  0  0  0  0  0  0  0  0
    6.5731    2.3925   22.3565 H   0  0  0  0  0  0  0  0  0  0  0  0
    7.9769    3.3483   22.8232 H   0  0  0  0  0  0  0  0  0  0  0  0
    6.0193    2.0111   24.7897 H   0  0  0  0  0  0  0  0  0  0  0  0
    7.4969    2.8747   25.2688 H   0  0  0  0  0  0  0  0  0  0  0  0
    6.1656    0.0012   23.6687 H   0  0  0  0  0  0  0  0  0  0  0  0
    7.2173   -0.9021   24.7770 H   0  0  0  0  0  0  0  0  0  0  0  0
    7.1779   -0.9889   18.4083 H   0  0  0  0  0  0  0  0  0  0  0  0
    4.3248    1.4416   16.6757 H   0  0  0  0  0  0  0  0  0  0  0  0
    2.7080    2.7096   18.0303 H   0  0  0  0  0  0  0  0  0  0  0  0
    1.7994    3.3333   20.2485 H   0  0  0  0  0  0  0  0  0  0  0  0
    2.7448    2.3287   22.3173 H   0  0  0  0  0  0  0  0  0  0  0  0
    4.6125    0.7549   22.1881 H   0  0  0  0  0  0  0  0  0  0  0  0
    5.2351   -1.8315   22.2004 H   0  0  0  0  0  0  0  0  0  0  0  0
    5.9109   -2.7159   20.8203 H   0  0  0  0  0  0  0  0  0  0  0  0
    8.0809   -2.7036   21.6617 H   0  0  0  0  0  0  0  0  0  0  0  0
    8.0943   -3.3828   24.0879 H   0  0  0  0  0  0  0  0  0  0  0  0
    6.8882   -4.2259   23.0930 H   0  0  0  0  0  0  0  0  0  0  0  0
    6.3804   -2.9248   24.1884 H   0  0  0  0  0  0  0  0  0  0  0  0
    9.9853   -2.1914   21.4544 H   0  0  0  0  0  0  0  0  0  0  0  0
   13.2987   -0.6236   23.6579 H   0  0  0  0  0  0  0  0  0  0  0  0
   11.7161    0.7279   25.0544 H   0  0  0  0  0  0  0  0  0  0  0  0
    6.5965    5.1318   21.3868 H   0  0  0  0  0  0  0  0  0  0  0  0
    5.2135    4.0100   21.3370 H   0  0  0  0  0  0  0  0  0  0  0  0
    3.9331    5.6503   22.7532 H   0  0  0  0  0  0  0  0  0  0  0  0
    3.5933    5.9528   20.3360 H   0  0  0  0  0  0  0  0  0  0  0  0
    5.1098    6.9094   20.2589 H   0  0  0  0  0  0  0  0  0  0  0  0
    3.6989    7.5389   21.1385 H   0  0  0  0  0  0  0  0  0  0  0  0
  1  2  1  0
  2  3  1  0
  3  4  1  0
  4  5  1  0
  5  6  1  0
  6  7  1  0
  7  8  1  0
  9  8  1  1
  9 10  1  0
 10 11  2  0
 10 12  1  0
 12 13  1  0
 13 14  2  0
 14 15  1  0
 15 16  2  0
 16 17  1  0
 17 18  2  0
 18 19  1  0
 19 20  2  0
 20 21  1  0
 21 22  2  0
 12 23  1  0
 23 24  1  0
 24 25  1  0
  9 26  1  0
 26 27  2  0
 27 28  1  0
 28 29  1  0
 28 30  2  0
 30 31  1  0
 31 32  2  0
 32 33  1  0
 33 34  2  0
  4 35  1  0
 35 36  1  0
 36 37  1  0
 36 38  1  0
 38  2  1  0
 33  7  1  0
 24  9  1  0
 32 26  1  0
 22 13  1  0
 22 17  1  0
  1 39  1  0
  1 40  1  0
  1 41  1  0
  2 42  1  1
  3 43  1  0
  3 44  1  0
  4 45  1  0
  5 46  1  0
  5 47  1  0
  6 48  1  0
  6 49  1  0
  8 50  1  0
  8 51  1  0
 14 52  1  0
 16 53  1  0
 18 54  1  0
 19 55  1  0
 20 56  1  0
 21 57  1  0
 23 58  1  0
 23 59  1  0
 24 60  1  6
 25 61  1  0
 25 62  1  0
 25 63  1  0
 27 64  1  0
 30 65  1  0
 31 66  1  0
 35 67  1  0
 35 68  1  0
 36 69  1  1
 37 70  1  0
 37 71  1  0
 37 72  1  0
M  CHG  1   4   1
M  END
>  <RMSD>  (25) 
0.18611125191171743

$$$$

     RDKit          3D

 73 78  0  0  0  0  0  0  0  0999 V2000
   -7.3590   -4.9998  -23.0540 C   0  0  0  0  0  0  0  0  0  0  0  0
   -7.6008   -3.8417  -22.0967 C   0  0  1  0  0  0  0  0  0  0  0  0
   -6.3415   -3.3175  -21.3883 C   0  0  0  0  0  0  0  0  0  0  0  0
   -6.7883   -2.0072  -20.9395 N   0  0  0  0  0  0  0  0  0  0  0  0
   -6.1464   -1.1848  -19.9834 C   0  0  0  0  0  0  0  0  0  0  0  0
   -6.5642   -1.2273  -18.6788 C   0  0  0  0  0  0  0  0  0  0  0  0
   -6.0326   -0.4784  -17.6805 N   0  0  0  0  0  0  0  0  0  0  0  0
   -5.0742    0.3564  -18.0090 C   0  0  0  0  0  0  0  0  0  0  0  0
   -4.5557    0.5180  -19.3279 C   0  0  0  0  0  0  0  0  0  0  0  0
   -3.5411    1.4649  -19.6344 C   0  0  0  0  0  0  0  0  0  0  0  0
   -3.0918    1.6183  -20.9182 C   0  0  0  0  0  0  0  0  0  0  0  0
   -3.6350    0.8349  -21.9614 C   0  0  0  0  0  0  0  0  0  0  0  0
   -4.6100   -0.0987  -21.6887 C   0  0  0  0  0  0  0  0  0  0  0  0
   -5.1043   -0.2778  -20.3639 C   0  0  0  0  0  0  0  0  0  0  0  0
   -7.9928   -1.6155  -21.4875 C   0  0  0  0  0  0  0  0  0  0  0  0
   -8.6645   -0.6942  -21.0711 O   0  0  0  0  0  0  0  0  0  0  0  0
   -8.2880   -2.5621  -22.6671 C   0  0  1  0  0  0  0  0  0  0  0  0
   -7.5858   -2.0641  -23.9647 C   0  0  0  0  0  0  0  0  0  0  0  0
   -8.2718   -0.9392  -24.5840 N   0  0  0  0  0  0  0  0  0  0  0  0
   -7.5448    0.2758  -24.9560 C   0  0  0  0  0  0  0  0  0  0  0  0
   -7.4705    1.2508  -23.7792 C   0  0  0  0  0  0  0  0  0  0  0  0
   -6.6881    2.4884  -24.0417 N   0  0  0  0  0  0  0  0  0  0  0  0
   -7.3976    3.4176  -24.9798 C   0  0  0  0  0  0  0  0  0  0  0  0
   -6.5056    4.5975  -25.3812 C   0  0  0  0  0  0  0  0  0  0  0  0
   -5.6823    5.0951  -24.2551 N   0  0  0  0  0  0  0  0  0  0  0  0
   -4.0659    4.6411  -24.4976 S   0  0  0  0  0  0  0  0  0  0  0  0
   -3.2453    5.5099  -23.1826 C   0  0  0  0  0  0  0  0  0  0  0  0
   -3.9599    3.1939  -24.3168 O   0  0  0  0  0  0  0  0  0  0  0  0
   -3.6338    5.2394  -25.7520 O   0  0  0  0  0  0  0  0  0  0  0  0
   -6.2574    4.7204  -22.9468 C   0  0  0  0  0  0  0  0  0  0  0  0
   -6.3937    3.2032  -22.7393 C   0  0  0  0  0  0  0  0  0  0  0  0
   -9.6175   -1.0103  -24.8400 C   0  0  0  0  0  0  0  0  0  0  0  0
  -10.1792   -0.2995  -25.6594 O   0  0  0  0  0  0  0  0  0  0  0  0
  -10.3814   -1.9886  -23.9878 C   0  0  0  0  0  0  0  0  0  0  0  0
  -11.7478   -2.1219  -24.2305 C   0  0  0  0  0  0  0  0  0  0  0  0
  -12.5561   -2.8084  -23.3453 C   0  0  0  0  0  0  0  0  0  0  0  0
  -11.9632   -3.3901  -22.2219 C   0  0  0  0  0  0  0  0  0  0  0  0
  -12.9730   -4.1693  -21.0288 Cl  0  0  0  0  0  0  0  0  0  0  0  0
  -10.5975   -3.3289  -22.0069 C   0  0  0  0  0  0  0  0  0  0  0  0
   -9.7712   -2.6584  -22.9186 C   0  0  0  0  0  0  0  0  0  0  0  0
   -6.6140   -4.7483  -23.8199 H   0  0  0  0  0  0  0  0  0  0  0  0
   -8.2861   -5.2834  -23.5650 H   0  0  0  0  0  0  0  0  0  0  0  0
   -6.9909   -5.8771  -22.5059 H   0  0  0  0  0  0  0  0  0  0  0  0
   -8.2468   -4.2007  -21.2870 H   0  0  0  0  0  0  0  0  0  0  0  0
   -6.0391   -3.9552  -20.5477 H   0  0  0  0  0  0  0  0  0  0  0  0
   -5.4807   -3.2664  -22.0763 H   0  0  0  0  0  0  0  0  0  0  0  0
   -7.3740   -1.8968  -18.3913 H   0  0  0  0  0  0  0  0  0  0  0  0
   -4.6687    0.9751  -17.2080 H   0  0  0  0  0  0  0  0  0  0  0  0
   -3.1539    2.0708  -18.8215 H   0  0  0  0  0  0  0  0  0  0  0  0
   -2.3293    2.3610  -21.1461 H   0  0  0  0  0  0  0  0  0  0  0  0
   -3.3184    1.0133  -22.9833 H   0  0  0  0  0  0  0  0  0  0  0  0
   -5.0159   -0.7040  -22.4945 H   0  0  0  0  0  0  0  0  0  0  0  0
   -6.5545   -1.7622  -23.7573 H   0  0  0  0  0  0  0  0  0  0  0  0
   -7.5526   -2.9014  -24.6748 H   0  0  0  0  0  0  0  0  0  0  0  0
   -6.5280    0.0226  -25.2856 H   0  0  0  0  0  0  0  0  0  0  0  0
   -8.0686    0.7131  -25.8080 H   0  0  0  0  0  0  0  0  0  0  0  0
   -8.4879    1.5365  -23.4893 H   0  0  0  0  0  0  0  0  0  0  0  0
   -7.0272    0.7393  -22.9234 H   0  0  0  0  0  0  0  0  0  0  0  0
   -5.7555    2.2526  -24.4285 H   0  0  0  0  0  0  0  0  0  0  0  0
   -7.7043    2.8755  -25.8744 H   0  0  0  0  0  0  0  0  0  0  0  0
   -8.3106    3.7870  -24.4948 H   0  0  0  0  0  0  0  0  0  0  0  0
   -5.8229    4.3125  -26.1895 H   0  0  0  0  0  0  0  0  0  0  0  0
   -7.1327    5.4127  -25.7583 H   0  0  0  0  0  0  0  0  0  0  0  0
   -3.3811    4.9670  -22.2441 H   0  0  0  0  0  0  0  0  0  0  0  0
   -2.1826    5.5949  -23.4289 H   0  0  0  0  0  0  0  0  0  0  0  0
   -3.6847    6.5121  -23.1450 H   0  0  0  0  0  0  0  0  0  0  0  0
   -5.6660    5.1666  -22.1401 H   0  0  0  0  0  0  0  0  0  0  0  0
   -7.2452    5.1945  -22.9107 H   0  0  0  0  0  0  0  0  0  0  0  0
   -5.4802    2.7864  -22.3095 H   0  0  0  0  0  0  0  0  0  0  0  0
   -7.2184    3.0047  -22.0504 H   0  0  0  0  0  0  0  0  0  0  0  0
  -12.1629   -1.6431  -25.1106 H   0  0  0  0  0  0  0  0  0  0  0  0
  -13.6292   -2.8784  -23.4984 H   0  0  0  0  0  0  0  0  0  0  0  0
  -10.1855   -3.8020  -21.1220 H   0  0  0  0  0  0  0  0  0  0  0  0
  1  2  1  0
  2  3  1  0
  3  4  1  0
  4  5  1  0
  5  6  2  0
  6  7  1  0
  7  8  2  0
  8  9  1  0
  9 10  2  0
 10 11  1  0
 11 12  2  0
 12 13  1  0
 13 14  2  0
  4 15  1  0
 15 16  2  0
 15 17  1  0
 17 18  1  6
 18 19  1  0
 19 20  1  0
 20 21  1  0
 21 22  1  0
 22 23  1  0
 23 24  1  0
 24 25  1  0
 25 26  1  0
 26 27  1  0
 26 28  2  0
 26 29  2  0
 25 30  1  0
 30 31  1  0
 19 32  1  0
 32 33  2  0
 32 34  1  0
 34 35  2  0
 35 36  1  0
 36 37  2  0
 37 38  1  0
 37 39  1  0
 39 40  2  0
 17  2  1  0
 31 22  1  0
 40 34  1  0
 14  5  1  0
 40 17  1  0
 14  9  1  0
  1 41  1  0
  1 42  1  0
  1 43  1  0
  2 44  1  1
  3 45  1  0
  3 46  1  0
  6 47  1  0
  8 48  1  0
 10 49  1  0
 11 50  1  0
 12 51  1  0
 13 52  1  0
 18 53  1  0
 18 54  1  0
 20 55  1  0
 20 56  1  0
 21 57  1  0
 21 58  1  0
 22 59  1  0
 23 60  1  0
 23 61  1  0
 24 62  1  0
 24 63  1  0
 27 64  1  0
 27 65  1  0
 27 66  1  0
 30 67  1  0
 30 68  1  0
 31 69  1  0
 31 70  1  0
 35 71  1  0
 36 72  1  0
 39 73  1  0
M  CHG  1  22   1
M  END
>  <RMSD>  (26) 
0.0803939781654164

$$$$

     RDKit          3D

 28 31  0  0  0  0  0  0  0  0999 V2000
    9.6036    3.5897   23.8726 C   0  0  0  0  0  0  0  0  0  0  0  0
    8.9760    2.3322   23.8751 O   0  0  0  0  0  0  0  0  0  0  0  0
    9.6911    1.2659   23.4272 C   0  0  0  0  0  0  0  0  0  0  0  0
   11.0051    1.3715   22.9726 C   0  0  0  0  0  0  0  0  0  0  0  0
   11.6557    0.2450   22.4802 C   0  0  0  0  0  0  0  0  0  0  0  0
   10.9968   -0.9734   22.4457 C   0  0  0  0  0  0  0  0  0  0  0  0
    9.6873   -1.0671   22.9158 C   0  0  0  0  0  0  0  0  0  0  0  0
    9.0151    0.0308   23.4315 C   0  0  0  0  0  0  0  0  0  0  0  0
    7.5823   -0.0486   23.9638 C   0  0  2  0  0  0  0  0  0  0  0  0
    7.4982    0.0948   25.5012 C   0  0  0  0  0  0  0  0  0  0  0  0
    7.5946   -1.2021   26.3127 C   0  0  2  0  0  0  0  0  0  0  0  0
    9.0048   -1.7982   26.3806 C   0  0  0  0  0  0  0  0  0  0  0  0
    6.5469   -2.1746   25.7645 C   0  0  0  0  0  0  0  0  0  0  0  0
    6.7422   -2.4391   24.2779 C   0  0  0  0  0  0  0  0  0  0  0  0
    6.8312   -1.2100   23.4816 N   0  0  0  0  0  0  0  0  0  0  0  0
    6.3993   -1.3330   22.1756 C   0  0  0  0  0  0  0  0  0  0  0  0
    5.6931   -2.2674   21.8387 O   0  0  0  0  0  0  0  0  0  0  0  0
    6.8668   -0.3338   21.0975 C   0  0  0  0  0  0  0  0  0  0  0  0
    5.8665   -0.1769   19.9821 C   0  0  0  0  0  0  0  0  0  0  0  0
    6.0393   -0.8061   18.7763 C   0  0  0  0  0  0  0  0  0  0  0  0
    5.2334   -0.6661   17.6903 N   0  0  0  0  0  0  0  0  0  0  0  0
    4.1746    0.0930   17.8309 C   0  0  0  0  0  0  0  0  0  0  0  0
    3.8214    0.7471   19.0431 C   0  0  0  0  0  0  0  0  0  0  0  0
    2.6409    1.5209   19.1682 C   0  0  0  0  0  0  0  0  0  0  0  0
    2.3276    2.1330   20.3496 C   0  0  0  0  0  0  0  0  0  0  0  0
    3.1991    2.0194   21.4542 C   0  0  0  0  0  0  0  0  0  0  0  0
    4.3542    1.2847   21.3576 C   0  0  0  0  0  0  0  0  0  0  0  0
    4.6932    0.6171   20.1497 C   0  0  0  0  0  0  0  0  0  0  0  0
  1  2  1  0
  2  3  1  0
  3  4  2  0
  4  5  1  0
  5  6  2  0
  6  7  1  0
  7  8  2  0
  9  8  1  1
  9 10  1  0
 10 11  1  0
 11 12  1  6
 11 13  1  0
 13 14  1  0
 14 15  1  0
 15 16  1  0
 16 17  2  0
 16 18  1  0
 18 19  1  0
 19 20  2  0
 20 21  1  0
 21 22  2  0
 22 23  1  0
 23 24  2  0
 24 25  1  0
 25 26  2  0
 26 27  1  0
 27 28  2  0
  8  3  1  0
 15  9  1  0
 28 19  1  0
 28 23  1  0
M  END
>  <cnnaffinities>  (27) 
[5.79148, 5.91045, 5.75609, 5.73146]

>  <score>  (27) 
5.79148

>  <index>  (27) 
11

>  <Smiles>  (27) 
C(Oc1c(c(c(c(c1[C@@]1(C([C@](C([H])([H])[H])(C(C(N1C(=O)C(c1c(nc(c2c(c(c(c(c12)[H])[H])[H])[H])[H])[H])([H])[H])([H])[H])([H])[H])[H])([H])[H])[H])[H])[H])[H])[H])([H])([H])[H]

>  <h>  (27) 
<NA>

>  <Training>  (27) 
True

>  <Success>  (27) 
True

>  <enamine_searched>  (27) 
False

>  <enamine_id>  (27) 
nan

$$$$

     RDKit          3D

 63 68  0  0  0  0  0  0  0  0999 V2000
   -6.7759    2.5698  -23.1883 C   0  0  0  0  0  0  0  0  0  0  0  0
   -7.3079    1.3657  -23.7939 N   0  0  0  0  0  0  0  0  0  0  0  0
   -6.8486    0.9929  -25.0061 C   0  0  0  0  0  0  0  0  0  0  0  0
   -6.0435    1.6571  -25.6490 O   0  0  0  0  0  0  0  0  0  0  0  0
   -7.3862   -0.3147  -25.5991 C   0  0  0  0  0  0  0  0  0  0  0  0
   -8.1811   -1.1289  -24.7073 N   0  0  0  0  0  0  0  0  0  0  0  0
   -7.5844   -2.3056  -24.1180 C   0  0  0  0  0  0  0  0  0  0  0  0
   -8.1975   -2.6612  -22.7387 C   0  0  2  0  0  0  0  0  0  0  0  0
   -7.8436   -1.5513  -21.7184 C   0  0  0  0  0  0  0  0  0  0  0  0
   -8.3379   -0.4445  -21.6150 O   0  0  0  0  0  0  0  0  0  0  0  0
   -6.8023   -1.9965  -20.9450 N   0  0  0  0  0  0  0  0  0  0  0  0
   -6.1729   -1.1534  -19.9946 C   0  0  0  0  0  0  0  0  0  0  0  0
   -6.5485   -1.2356  -18.6798 C   0  0  0  0  0  0  0  0  0  0  0  0
   -6.0150   -0.4952  -17.6767 N   0  0  0  0  0  0  0  0  0  0  0  0
   -5.0734    0.3590  -18.0051 C   0  0  0  0  0  0  0  0  0  0  0  0
   -4.5812    0.5439  -19.3309 C   0  0  0  0  0  0  0  0  0  0  0  0
   -3.5594    1.4868  -19.6315 C   0  0  0  0  0  0  0  0  0  0  0  0
   -3.0991    1.6193  -20.9137 C   0  0  0  0  0  0  0  0  0  0  0  0
   -3.6285    0.8212  -21.9555 C   0  0  0  0  0  0  0  0  0  0  0  0
   -4.6248   -0.0883  -21.6918 C   0  0  0  0  0  0  0  0  0  0  0  0
   -5.1370   -0.2418  -20.3696 C   0  0  0  0  0  0  0  0  0  0  0  0
   -6.2847   -3.2909  -21.3262 C   0  0  0  0  0  0  0  0  0  0  0  0
   -7.4407   -3.8884  -22.1428 C   0  0  2  0  0  0  0  0  0  0  0  0
   -6.9385   -4.9060  -23.1816 C   0  0  0  0  0  0  0  0  0  0  0  0
   -6.4312   -6.1262  -22.5749 N   0  0  0  0  0  0  0  0  0  0  0  0
   -5.2345   -6.3627  -21.9765 C   0  0  0  0  0  0  0  0  0  0  0  0
   -5.3273   -7.5946  -21.3652 C   0  0  0  0  0  0  0  0  0  0  0  0
   -6.6464   -8.0148  -21.6348 C   0  0  0  0  0  0  0  0  0  0  0  0
   -7.2978   -7.1153  -22.3534 N   0  0  0  0  0  0  0  0  0  0  0  0
   -9.7026   -2.7549  -22.9347 C   0  0  0  0  0  0  0  0  0  0  0  0
  -10.5242   -3.6318  -22.2122 C   0  0  0  0  0  0  0  0  0  0  0  0
  -11.9018   -3.5773  -22.3713 C   0  0  0  0  0  0  0  0  0  0  0  0
  -12.9130   -4.6738  -21.4699 Cl  0  0  0  0  0  0  0  0  0  0  0  0
  -12.5106   -2.6579  -23.2273 C   0  0  0  0  0  0  0  0  0  0  0  0
  -11.7078   -1.7998  -23.9501 C   0  0  0  0  0  0  0  0  0  0  0  0
  -10.3225   -1.8557  -23.8235 C   0  0  0  0  0  0  0  0  0  0  0  0
   -9.5323   -0.9375  -24.7070 C   0  0  0  0  0  0  0  0  0  0  0  0
  -10.0533   -0.0666  -25.3928 O   0  0  0  0  0  0  0  0  0  0  0  0
   -5.7107    2.4473  -22.9552 H   0  0  0  0  0  0  0  0  0  0  0  0
   -7.3227    2.7674  -22.2634 H   0  0  0  0  0  0  0  0  0  0  0  0
   -6.8815    3.4282  -23.8619 H   0  0  0  0  0  0  0  0  0  0  0  0
   -7.8286    0.7208  -23.2021 H   0  0  0  0  0  0  0  0  0  0  0  0
   -6.5192   -0.8881  -25.9391 H   0  0  0  0  0  0  0  0  0  0  0  0
   -7.9797   -0.0652  -26.4869 H   0  0  0  0  0  0  0  0  0  0  0  0
   -6.5133   -2.1062  -24.0062 H   0  0  0  0  0  0  0  0  0  0  0  0
   -7.7186   -3.1639  -24.7901 H   0  0  0  0  0  0  0  0  0  0  0  0
   -7.3302   -1.9366  -18.3945 H   0  0  0  0  0  0  0  0  0  0  0  0
   -4.6512    0.9600  -17.1992 H   0  0  0  0  0  0  0  0  0  0  0  0
   -3.1624    2.0965  -18.8222 H   0  0  0  0  0  0  0  0  0  0  0  0
   -2.3219    2.3422  -21.1440 H   0  0  0  0  0  0  0  0  0  0  0  0
   -3.2697    0.9505  -22.9756 H   0  0  0  0  0  0  0  0  0  0  0  0
   -5.0263   -0.6943  -22.5008 H   0  0  0  0  0  0  0  0  0  0  0  0
   -5.3586   -3.2173  -21.9243 H   0  0  0  0  0  0  0  0  0  0  0  0
   -6.0423   -3.8761  -20.4386 H   0  0  0  0  0  0  0  0  0  0  0  0
   -8.0993   -4.4013  -21.4363 H   0  0  0  0  0  0  0  0  0  0  0  0
   -7.7695   -5.1963  -23.8284 H   0  0  0  0  0  0  0  0  0  0  0  0
   -6.1499   -4.4698  -23.8052 H   0  0  0  0  0  0  0  0  0  0  0  0
   -4.3994   -5.6703  -22.0502 H   0  0  0  0  0  0  0  0  0  0  0  0
   -4.5840   -8.1371  -20.7954 H   0  0  0  0  0  0  0  0  0  0  0  0
   -7.1907   -8.9083  -21.3434 H   0  0  0  0  0  0  0  0  0  0  0  0
  -10.1024   -4.3613  -21.5271 H   0  0  0  0  0  0  0  0  0  0  0  0
  -13.5914   -2.6190  -23.3225 H   0  0  0  0  0  0  0  0  0  0  0  0
  -12.1228   -1.0646  -24.6327 H   0  0  0  0  0  0  0  0  0  0  0  0
  1  2  1  0
  2  3  1  0
  3  4  2  0
  3  5  1  0
  5  6  1  0
  6  7  1  0
  8  7  1  6
  8  9  1  0
  9 10  2  0
  9 11  1  0
 11 12  1  0
 12 13  2  0
 13 14  1  0
 14 15  2  0
 15 16  1  0
 16 17  2  0
 17 18  1  0
 18 19  2  0
 19 20  1  0
 20 21  2  0
 11 22  1  0
 22 23  1  0
 23 24  1  0
 24 25  1  0
 25 26  1  0
 26 27  2  0
 27 28  1  0
 28 29  2  0
  8 30  1  0
 30 31  2  0
 31 32  1  0
 32 33  1  0
 32 34  2  0
 34 35  1  0
 35 36  2  0
 36 37  1  0
 37 38  2  0
 37  6  1  0
 23  8  1  0
 29 25  1  0
 36 30  1  0
 21 12  1  0
 21 16  1  0
  1 39  1  0
  1 40  1  0
  1 41  1  0
  2 42  1  0
  5 43  1  0
  5 44  1  0
  7 45  1  0
  7 46  1  0
 13 47  1  0
 15 48  1  0
 17 49  1  0
 18 50  1  0
 19 51  1  0
 20 52  1  0
 22 53  1  0
 22 54  1  0
 23 55  1  1
 24 56  1  0
 24 57  1  0
 26 58  1  0
 27 59  1  0
 28 60  1  0
 31 61  1  0
 34 62  1  0
 35 63  1  0
M  END
>  <RMSD>  (28) 
0.06222953726065442

$$$$

     RDKit          3D

 61 66  0  0  0  0  0  0  0  0999 V2000
   -6.7782    2.5954  -23.1947 C   0  0  0  0  0  0  0  0  0  0  0  0
   -7.3352    1.4002  -23.8022 N   0  0  0  0  0  0  0  0  0  0  0  0
   -6.8540    0.9927  -24.9987 C   0  0  0  0  0  0  0  0  0  0  0  0
   -6.0406    1.6386  -25.6503 O   0  0  0  0  0  0  0  0  0  0  0  0
   -7.3779   -0.3295  -25.5759 C   0  0  0  0  0  0  0  0  0  0  0  0
   -8.1737   -1.1476  -24.6882 N   0  0  0  0  0  0  0  0  0  0  0  0
   -7.5826   -2.3330  -24.0952 C   0  0  0  0  0  0  0  0  0  0  0  0
   -8.2073   -2.6682  -22.7149 C   0  0  2  0  0  0  0  0  0  0  0  0
   -7.8493   -1.5497  -21.7028 C   0  0  0  0  0  0  0  0  0  0  0  0
   -8.3604   -0.4486  -21.5914 O   0  0  0  0  0  0  0  0  0  0  0  0
   -6.7925   -1.9860  -20.9433 N   0  0  0  0  0  0  0  0  0  0  0  0
   -6.1657   -1.1526  -19.9879 C   0  0  0  0  0  0  0  0  0  0  0  0
   -6.5466   -1.2379  -18.6741 C   0  0  0  0  0  0  0  0  0  0  0  0
   -6.0212   -0.4924  -17.6704 N   0  0  0  0  0  0  0  0  0  0  0  0
   -5.0794    0.3615  -18.0046 C   0  0  0  0  0  0  0  0  0  0  0  0
   -4.5847    0.5433  -19.3299 C   0  0  0  0  0  0  0  0  0  0  0  0
   -3.5639    1.4853  -19.6304 C   0  0  0  0  0  0  0  0  0  0  0  0
   -3.1050    1.6176  -20.9133 C   0  0  0  0  0  0  0  0  0  0  0  0
   -3.6323    0.8234  -21.9576 C   0  0  0  0  0  0  0  0  0  0  0  0
   -4.6259   -0.0875  -21.6936 C   0  0  0  0  0  0  0  0  0  0  0  0
   -5.1335   -0.2425  -20.3687 C   0  0  0  0  0  0  0  0  0  0  0  0
   -6.3002   -3.2963  -21.3003 C   0  0  0  0  0  0  0  0  0  0  0  0
   -7.4859   -3.8920  -22.0711 C   0  0  2  0  0  0  0  0  0  0  0  0
   -7.0375   -4.9981  -23.0306 C   0  0  0  0  0  0  0  0  0  0  0  0
   -6.4716   -6.1476  -22.3410 N   0  0  0  0  0  0  0  0  0  0  0  0
   -5.2442   -6.2337  -21.8457 N   0  0  0  0  0  0  0  0  0  0  0  0
   -5.2665   -7.4474  -21.3109 C   0  0  0  0  0  0  0  0  0  0  0  0
   -6.4531   -8.0623  -21.4819 N   0  0  0  0  0  0  0  0  0  0  0  0
   -7.1959   -7.2202  -22.1394 N   0  0  0  0  0  0  0  0  0  0  0  0
   -9.7105   -2.7541  -22.9167 C   0  0  0  0  0  0  0  0  0  0  0  0
  -10.5430   -3.6195  -22.1938 C   0  0  0  0  0  0  0  0  0  0  0  0
  -11.9181   -3.5445  -22.3556 C   0  0  0  0  0  0  0  0  0  0  0  0
  -12.9363   -4.6226  -21.4480 Cl  0  0  0  0  0  0  0  0  0  0  0  0
  -12.5225   -2.6242  -23.2099 C   0  0  0  0  0  0  0  0  0  0  0  0
  -11.7109   -1.7748  -23.9286 C   0  0  0  0  0  0  0  0  0  0  0  0
  -10.3249   -1.8504  -23.8026 C   0  0  0  0  0  0  0  0  0  0  0  0
   -9.5250   -0.9358  -24.6764 C   0  0  0  0  0  0  0  0  0  0  0  0
  -10.0482   -0.0486  -25.3365 O   0  0  0  0  0  0  0  0  0  0  0  0
   -5.7132    2.4545  -22.9698 H   0  0  0  0  0  0  0  0  0  0  0  0
   -6.8776    3.4675  -23.8523 H   0  0  0  0  0  0  0  0  0  0  0  0
   -7.3097    2.7955  -22.2618 H   0  0  0  0  0  0  0  0  0  0  0  0
   -7.8610    0.7685  -23.2006 H   0  0  0  0  0  0  0  0  0  0  0  0
   -6.5010   -0.8915  -25.9109 H   0  0  0  0  0  0  0  0  0  0  0  0
   -7.9653   -0.0863  -26.4697 H   0  0  0  0  0  0  0  0  0  0  0  0
   -7.7290   -3.1976  -24.7566 H   0  0  0  0  0  0  0  0  0  0  0  0
   -6.5064   -2.1554  -23.9854 H   0  0  0  0  0  0  0  0  0  0  0  0
   -7.3314   -1.9418  -18.4016 H   0  0  0  0  0  0  0  0  0  0  0  0
   -4.6440    0.9618  -17.2070 H   0  0  0  0  0  0  0  0  0  0  0  0
   -3.1617    2.0926  -18.8228 H   0  0  0  0  0  0  0  0  0  0  0  0
   -2.3235    2.3344  -21.1434 H   0  0  0  0  0  0  0  0  0  0  0  0
   -3.2667    0.9493  -22.9765 H   0  0  0  0  0  0  0  0  0  0  0  0
   -5.0258   -0.6906  -22.5051 H   0  0  0  0  0  0  0  0  0  0  0  0
   -6.0646   -3.8758  -20.4076 H   0  0  0  0  0  0  0  0  0  0  0  0
   -5.3831   -3.2558  -21.9194 H   0  0  0  0  0  0  0  0  0  0  0  0
   -8.1553   -4.3536  -21.3402 H   0  0  0  0  0  0  0  0  0  0  0  0
   -6.2755   -4.6369  -23.7189 H   0  0  0  0  0  0  0  0  0  0  0  0
   -7.8776   -5.3798  -23.6135 H   0  0  0  0  0  0  0  0  0  0  0  0
   -4.4232   -7.9105  -20.8126 H   0  0  0  0  0  0  0  0  0  0  0  0
  -10.1507   -4.3597  -21.5030 H   0  0  0  0  0  0  0  0  0  0  0  0
  -13.6033   -2.5800  -23.3025 H   0  0  0  0  0  0  0  0  0  0  0  0
  -12.1262   -1.0398  -24.6092 H   0  0  0  0  0  0  0  0  0  0  0  0
  1  2  1  0
  2  3  1  0
  3  4  2  0
  3  5  1  0
  5  6  1  0
  6  7  1  0
  8  7  1  6
  8  9  1  0
  9 10  2  0
  9 11  1  0
 11 12  1  0
 12 13  2  0
 13 14  1  0
 14 15  2  0
 15 16  1  0
 16 17  2  0
 17 18  1  0
 18 19  2  0
 19 20  1  0
 20 21  2  0
 11 22  1  0
 22 23  1  0
 23 24  1  0
 24 25  1  0
 25 26  1  0
 26 27  2  0
 27 28  1  0
 28 29  2  0
  8 30  1  0
 30 31  2  0
 31 32  1  0
 32 33  1  0
 32 34  2  0
 34 35  1  0
 35 36  2  0
 36 37  1  0
 37 38  2  0
 37  6  1  0
 23  8  1  0
 29 25  1  0
 36 30  1  0
 21 12  1  0
 21 16  1  0
  1 39  1  0
  1 40  1  0
  1 41  1  0
  2 42  1  0
  5 43  1  0
  5 44  1  0
  7 45  1  0
  7 46  1  0
 13 47  1  0
 15 48  1  0
 17 49  1  0
 18 50  1  0
 19 51  1  0
 20 52  1  0
 22 53  1  0
 22 54  1  0
 23 55  1  1
 24 56  1  0
 24 57  1  0
 27 58  1  0
 31 59  1  0
 34 60  1  0
 35 61  1  0
M  END
>  <RMSD>  (29) 
0.060880339775347514

$$$$

     RDKit          3D

 47 50  0  0  0  0  0  0  0  0999 V2000
    5.5849   -2.2922   21.5186 O   0  0  0  0  0  0  0  0  0  0  0  0
    6.6860   -1.8177   21.3315 C   0  0  0  0  0  0  0  0  0  0  0  0
    6.8423   -0.3341   21.0020 C   0  0  0  0  0  0  0  0  0  0  0  0
    5.9459    0.0388   19.8467 C   0  0  0  0  0  0  0  0  0  0  0  0
    6.2445   -0.4015   18.5867 C   0  0  0  0  0  0  0  0  0  0  0  0
    5.6689    0.0575   17.4478 N   0  0  0  0  0  0  0  0  0  0  0  0
    4.7331    0.9671   17.5759 C   0  0  0  0  0  0  0  0  0  0  0  0
    4.2313    1.4145   18.8308 C   0  0  0  0  0  0  0  0  0  0  0  0
    3.1962    2.3755   18.9531 C   0  0  0  0  0  0  0  0  0  0  0  0
    2.6680    2.6674   20.1826 C   0  0  0  0  0  0  0  0  0  0  0  0
    3.1131    1.9807   21.3346 C   0  0  0  0  0  0  0  0  0  0  0  0
    4.1251    1.0597   21.2408 C   0  0  0  0  0  0  0  0  0  0  0  0
    4.7703    0.8317   19.9985 C   0  0  0  0  0  0  0  0  0  0  0  0
    7.8462   -2.5641   21.3588 N   0  0  0  0  0  0  0  0  0  0  0  0
    9.0813   -2.1517   22.0136 C   0  0  0  0  0  0  0  0  0  0  0  0
    9.1926   -3.1609   23.1598 C   0  0  2  0  0  0  0  0  0  0  0  0
   10.5486   -3.1276   23.8133 C   0  0  0  0  0  0  0  0  0  0  0  0
   10.6896   -1.8954   24.4419 F   0  0  0  0  0  0  0  0  0  0  0  0
    8.6547   -4.4960   22.5937 C   0  0  0  0  0  0  0  0  0  0  0  0
    7.8621   -5.2824   23.6673 C   0  0  0  0  0  0  0  0  0  0  0  0
    7.7163   -6.7365   23.1618 C   0  0  0  0  0  0  0  0  0  0  0  0
    8.7976   -6.8802   22.0629 C   0  0  0  0  0  0  0  0  0  0  0  0
    9.6510   -5.6120   22.2197 C   0  0  0  0  0  0  0  0  0  0  0  0
    7.8282   -4.0305   21.3513 C   0  0  0  0  0  0  0  0  0  0  0  0
    6.5899    0.2542   21.8902 H   0  0  0  0  0  0  0  0  0  0  0  0
    7.8868   -0.1151   20.7445 H   0  0  0  0  0  0  0  0  0  0  0  0
    7.0245   -1.1449   18.4390 H   0  0  0  0  0  0  0  0  0  0  0  0
    4.3022    1.3590   16.6552 H   0  0  0  0  0  0  0  0  0  0  0  0
    2.8013    2.8464   18.0579 H   0  0  0  0  0  0  0  0  0  0  0  0
    1.8845    3.4121   20.2776 H   0  0  0  0  0  0  0  0  0  0  0  0
    2.6530    2.1935   22.2959 H   0  0  0  0  0  0  0  0  0  0  0  0
    4.4218    0.4717   22.1052 H   0  0  0  0  0  0  0  0  0  0  0  0
    9.9224   -2.2476   21.3106 H   0  0  0  0  0  0  0  0  0  0  0  0
    9.0510   -1.1267   22.3968 H   0  0  0  0  0  0  0  0  0  0  0  0
    8.4695   -2.8581   23.9235 H   0  0  0  0  0  0  0  0  0  0  0  0
   11.3237   -3.2118   23.0491 H   0  0  0  0  0  0  0  0  0  0  0  0
   10.6847   -3.9090   24.5717 H   0  0  0  0  0  0  0  0  0  0  0  0
    6.9173   -4.7975   23.9342 H   0  0  0  0  0  0  0  0  0  0  0  0
    8.4890   -5.2862   24.5708 H   0  0  0  0  0  0  0  0  0  0  0  0
    6.7115   -6.9222   22.7651 H   0  0  0  0  0  0  0  0  0  0  0  0
    7.8754   -7.4523   23.9801 H   0  0  0  0  0  0  0  0  0  0  0  0
    8.3418   -6.9163   21.0653 H   0  0  0  0  0  0  0  0  0  0  0  0
    9.3868   -7.8026   22.1651 H   0  0  0  0  0  0  0  0  0  0  0  0
   10.3093   -5.7845   23.0747 H   0  0  0  0  0  0  0  0  0  0  0  0
   10.2495   -5.4035   21.3325 H   0  0  0  0  0  0  0  0  0  0  0  0
    6.8010   -4.4044   21.3391 H   0  0  0  0  0  0  0  0  0  0  0  0
    8.3189   -4.3943   20.4348 H   0  0  0  0  0  0  0  0  0  0  0  0
  1  2  2  0
  2  3  1  0
  3  4  1  0
  4  5  2  0
  5  6  1  0
  6  7  2  0
  7  8  1  0
  8  9  2  0
  9 10  1  0
 10 11  2  0
 11 12  1  0
 12 13  2  0
  2 14  1  0
 14 15  1  0
 15 16  1  0
 16 17  1  0
 17 18  1  0
 16 19  1  0
 19 20  1  0
 20 21  1  0
 21 22  1  0
 22 23  1  0
 19 24  1  0
 13  4  1  0
 24 14  1  0
 13  8  1  0
 23 19  1  0
  3 25  1  0
  3 26  1  0
  5 27  1  0
  7 28  1  0
  9 29  1  0
 10 30  1  0
 11 31  1  0
 12 32  1  0
 15 33  1  0
 15 34  1  0
 16 35  1  1
 17 36  1  0
 17 37  1  0
 20 38  1  0
 20 39  1  0
 21 40  1  0
 21 41  1  0
 22 42  1  0
 22 43  1  0
 23 44  1  0
 23 45  1  0
 24 46  1  0
 24 47  1  0
M  END
>  <RMSD>  (30) 
0.11151411330355836

$$$$

     RDKit          3D

 67 72  0  0  0  0  0  0  0  0999 V2000
    6.1921    4.0006   22.1089 C   0  0  0  0  0  0  0  0  0  0  0  0
    6.6767    2.9539   22.9838 N   0  0  0  0  0  0  0  0  0  0  0  0
    6.4128    2.9631   24.3063 C   0  0  0  0  0  0  0  0  0  0  0  0
    5.6999    3.7905   24.8596 O   0  0  0  0  0  0  0  0  0  0  0  0
    7.0746    1.8577   25.1412 C   0  0  0  0  0  0  0  0  0  0  0  0
    7.9257    0.9346   24.4205 N   0  0  0  0  0  0  0  0  0  0  0  0
    7.3920   -0.3568   24.0235 C   0  0  0  0  0  0  0  0  0  0  0  0
    8.0593   -0.9067   22.7294 C   0  0  2  0  0  0  0  0  0  0  0  0
    7.5970   -0.0467   21.5245 C   0  0  0  0  0  0  0  0  0  0  0  0
    8.0456    1.0296   21.1692 O   0  0  0  0  0  0  0  0  0  0  0  0
    6.5335   -0.6743   20.9253 N   0  0  0  0  0  0  0  0  0  0  0  0
    5.8666   -0.0807   19.8196 C   0  0  0  0  0  0  0  0  0  0  0  0
    6.3122   -0.3376   18.5473 C   0  0  0  0  0  0  0  0  0  0  0  0
    5.7708    0.1886   17.4201 N   0  0  0  0  0  0  0  0  0  0  0  0
    4.7597    1.0113   17.5733 C   0  0  0  0  0  0  0  0  0  0  0  0
    4.2018    1.3738   18.8340 C   0  0  0  0  0  0  0  0  0  0  0  0
    3.1190    2.2887   18.9430 C   0  0  0  0  0  0  0  0  0  0  0  0
    2.6090    2.6176   20.1689 C   0  0  0  0  0  0  0  0  0  0  0  0
    3.1462    2.0446   21.3429 C   0  0  0  0  0  0  0  0  0  0  0  0
    4.1949    1.1577   21.2623 C   0  0  0  0  0  0  0  0  0  0  0  0
    4.7604    0.8057   20.0040 C   0  0  0  0  0  0  0  0  0  0  0  0
    6.1885   -1.9487   21.5307 C   0  0  0  0  0  0  0  0  0  0  0  0
    7.4638   -2.2882   22.3180 C   0  0  2  0  0  0  0  0  0  0  0  0
    7.2311   -3.2954   23.4367 C   0  0  0  0  0  0  0  0  0  0  0  0
    6.6326   -4.4582   22.8766 O   0  0  0  0  0  0  0  0  0  0  0  0
    6.6108   -5.5774   23.7622 C   0  0  0  0  0  0  0  0  0  0  0  0
    6.1947   -6.8291   23.0907 C   0  0  0  0  0  0  0  0  0  0  0  0
    4.6814   -7.1505   23.2286 C   0  0  0  0  0  0  0  0  0  0  0  0
    4.7907   -7.1777   23.0483 C   0  0  0  0  0  0  0  0  0  0  0  0
    9.5624   -0.8438   22.9250 C   0  0  0  0  0  0  0  0  0  0  0  0
   10.4421   -1.7591   22.3310 C   0  0  0  0  0  0  0  0  0  0  0  0
   11.8104   -1.6062   22.4772 C   0  0  0  0  0  0  0  0  0  0  0  0
   12.8776   -2.7707   21.7433 Cl  0  0  0  0  0  0  0  0  0  0  0  0
   12.3612   -0.5401   23.1862 C   0  0  0  0  0  0  0  0  0  0  0  0
   11.5034    0.3673   23.7730 C   0  0  0  0  0  0  0  0  0  0  0  0
   10.1219    0.2114   23.6638 C   0  0  0  0  0  0  0  0  0  0  0  0
    9.2661    1.2142   24.3748 C   0  0  0  0  0  0  0  0  0  0  0  0
    9.7345    2.2259   24.8783 O   0  0  0  0  0  0  0  0  0  0  0  0
    6.8552    4.0421   21.2407 H   0  0  0  0  0  0  0  0  0  0  0  0
    6.2039    4.9643   22.6267 H   0  0  0  0  0  0  0  0  0  0  0  0
    5.1696    3.8027   21.7634 H   0  0  0  0  0  0  0  0  0  0  0  0
    7.3150    2.2716   22.5876 H   0  0  0  0  0  0  0  0  0  0  0  0
    7.6816    2.3595   25.9010 H   0  0  0  0  0  0  0  0  0  0  0  0
    6.2776    1.3136   25.6594 H   0  0  0  0  0  0  0  0  0  0  0  0
    7.5471   -1.0760   24.8397 H   0  0  0  0  0  0  0  0  0  0  0  0
    6.3144   -0.2339   23.8667 H   0  0  0  0  0  0  0  0  0  0  0  0
    7.1632   -1.0013   18.4060 H   0  0  0  0  0  0  0  0  0  0  0  0
    4.3254    1.4413   16.6698 H   0  0  0  0  0  0  0  0  0  0  0  0
    2.7171    2.7253   18.0326 H   0  0  0  0  0  0  0  0  0  0  0  0
    1.7946    3.3318   20.2526 H   0  0  0  0  0  0  0  0  0  0  0  0
    2.7571    2.3402   22.3147 H   0  0  0  0  0  0  0  0  0  0  0  0
    4.6053    0.7348   22.1748 H   0  0  0  0  0  0  0  0  0  0  0  0
    5.3155   -1.8633   22.1963 H   0  0  0  0  0  0  0  0  0  0  0  0
    5.9555   -2.6942   20.7678 H   0  0  0  0  0  0  0  0  0  0  0  0
    8.1474   -2.7371   21.5943 H   0  0  0  0  0  0  0  0  0  0  0  0
    6.5736   -2.8342   24.1975 H   0  0  0  0  0  0  0  0  0  0  0  0
    8.1862   -3.5453   23.9314 H   0  0  0  0  0  0  0  0  0  0  0  0
    7.6513   -5.7154   24.1376 H   0  0  0  0  0  0  0  0  0  0  0  0
    6.0428   -5.2875   24.6867 H   0  0  0  0  0  0  0  0  0  0  0  0
    5.9513   -6.7812   22.0461 H   0  0  0  0  0  0  0  0  0  0  0  0
    3.9538   -6.8298   22.1823 H   0  0  0  0  0  0  0  0  0  0  0  0
    4.2754   -8.3484   23.1297 H   0  0  0  0  0  0  0  0  0  0  0  0
    4.1441   -6.5486   24.6515 H   0  0  0  0  0  0  0  0  0  0  0  0
    7.0180   -7.5730   23.0368 H   0  0  0  0  0  0  0  0  0  0  0  0
   10.0826   -2.5949   21.7422 H   0  0  0  0  0  0  0  0  0  0  0  0
   13.4382   -0.4337   23.2690 H   0  0  0  0  0  0  0  0  0  0  0  0
   11.8782    1.2174   24.3330 H   0  0  0  0  0  0  0  0  0  0  0  0
  1  2  1  0
  2  3  1  0
  3  4  2  0
  3  5  1  0
  5  6  1  0
  6  7  1  0
  8  7  1  1
  8  9  1  0
  9 10  2  0
  9 11  1  0
 11 12  1  0
 12 13  2  0
 13 14  1  0
 14 15  2  0
 15 16  1  0
 16 17  2  0
 17 18  1  0
 18 19  2  0
 19 20  1  0
 20 21  2  0
 11 22  1  0
 22 23  1  0
 23 24  1  0
 24 25  1  0
 25 26  1  0
 26 27  1  0
 27 28  1  0
 28 29  1  0
  8 30  1  0
 30 31  2  0
 31 32  1  0
 32 33  1  0
 32 34  2  0
 34 35  1  0
 35 36  2  0
 36 37  1  0
 37 38  2  0
 37  6  1  0
 23  8  1  0
 29 27  1  0
 36 30  1  0
 21 12  1  0
 21 16  1  0
  1 39  1  0
  1 40  1  0
  1 41  1  0
  2 42  1  0
  5 43  1  0
  5 44  1  0
  7 45  1  0
  7 46  1  0
 13 47  1  0
 15 48  1  0
 17 49  1  0
 18 50  1  0
 19 51  1  0
 20 52  1  0
 22 53  1  0
 22 54  1  0
 23 55  1  6
 24 56  1  0
 24 57  1  0
 26 58  1  0
 26 59  1  0
 27 60  1  0
 28 61  1  0
 28 62  1  0
 29 63  1  0
 29 64  1  0
 31 65  1  0
 34 66  1  0
 35 67  1  0
M  END
>  <RMSD>  (31) 
0.17732865594382785

$$$$

     RDKit          3D

 38 41  0  0  0  0  0  0  0  0999 V2000
   -9.0875   -5.8228  -24.9610 C   0  0  0  0  0  0  0  0  0  0  0  0
   -9.0521   -4.6483  -23.9899 C   0  0  2  0  0  0  0  0  0  0  0  0
   -9.3827   -3.3266  -24.6773 C   0  0  0  0  0  0  0  0  0  0  0  0
   -9.4432   -2.1681  -23.6715 C   0  0  0  0  0  0  0  0  0  0  0  0
   -8.3226   -2.2012  -22.7163 C   0  0  0  0  0  0  0  0  0  0  0  0
   -7.9829   -1.2665  -21.6756 C   0  0  0  0  0  0  0  0  0  0  0  0
   -8.4803   -0.2084  -21.3576 O   0  0  0  0  0  0  0  0  0  0  0  0
   -6.9169   -1.8806  -20.9728 N   0  0  0  0  0  0  0  0  0  0  0  0
   -6.1620   -1.1898  -19.9784 C   0  0  0  0  0  0  0  0  0  0  0  0
   -6.4810   -1.2991  -18.6486 C   0  0  0  0  0  0  0  0  0  0  0  0
   -5.9379   -0.5436  -17.6552 N   0  0  0  0  0  0  0  0  0  0  0  0
   -5.0382    0.3535  -17.9869 C   0  0  0  0  0  0  0  0  0  0  0  0
   -4.5693    0.5395  -19.3190 C   0  0  0  0  0  0  0  0  0  0  0  0
   -3.5877    1.5178  -19.6460 C   0  0  0  0  0  0  0  0  0  0  0  0
   -3.1523    1.6493  -20.9373 C   0  0  0  0  0  0  0  0  0  0  0  0
   -3.6757    0.8207  -21.9537 C   0  0  0  0  0  0  0  0  0  0  0  0
   -4.6351   -0.1191  -21.6675 C   0  0  0  0  0  0  0  0  0  0  0  0
   -5.1172   -0.2748  -20.3398 C   0  0  0  0  0  0  0  0  0  0  0  0
   -6.6779   -3.1715  -21.4585 C   0  0  0  0  0  0  0  0  0  0  0  0
   -5.8613   -3.9639  -21.0547 O   0  0  0  0  0  0  0  0  0  0  0  0
   -7.5847   -3.3230  -22.5060 N   0  0  0  0  0  0  0  0  0  0  0  0
   -7.6921   -4.5448  -23.2983 C   0  0  0  0  0  0  0  0  0  0  0  0
  -10.0736   -5.9211  -25.4228 H   0  0  0  0  0  0  0  0  0  0  0  0
   -8.8600   -6.7688  -24.4615 H   0  0  0  0  0  0  0  0  0  0  0  0
   -8.3602   -5.6864  -25.7669 H   0  0  0  0  0  0  0  0  0  0  0  0
   -9.8049   -4.8300  -23.2147 H   0  0  0  0  0  0  0  0  0  0  0  0
  -10.3340   -3.4225  -25.2194 H   0  0  0  0  0  0  0  0  0  0  0  0
   -8.6254   -3.1154  -25.4404 H   0  0  0  0  0  0  0  0  0  0  0  0
  -10.3807   -2.2434  -23.1111 H   0  0  0  0  0  0  0  0  0  0  0  0
   -9.5258   -1.2179  -24.2072 H   0  0  0  0  0  0  0  0  0  0  0  0
   -7.2394   -2.0071  -18.3255 H   0  0  0  0  0  0  0  0  0  0  0  0
   -4.6239    0.9811  -17.1923 H   0  0  0  0  0  0  0  0  0  0  0  0
   -3.1881    2.1613  -18.8646 H   0  0  0  0  0  0  0  0  0  0  0  0
   -2.3987    2.3916  -21.1927 H   0  0  0  0  0  0  0  0  0  0  0  0
   -3.3181    0.9309  -22.9741 H   0  0  0  0  0  0  0  0  0  0  0  0
   -5.0388   -0.7460  -22.4557 H   0  0  0  0  0  0  0  0  0  0  0  0
   -6.8830   -4.5740  -24.0347 H   0  0  0  0  0  0  0  0  0  0  0  0
   -7.5242   -5.3984  -22.6432 H   0  0  0  0  0  0  0  0  0  0  0  0
  1  2  1  0
  2  3  1  0
  3  4  1  0
  4  5  1  0
  5  6  2  0
  6  7  1  0
  6  8  1  0
  8  9  1  0
  9 10  2  0
 10 11  1  0
 11 12  2  0
 12 13  1  0
 13 14  2  0
 14 15  1  0
 15 16  2  0
 16 17  1  0
 17 18  2  0
  8 19  1  0
 19 20  2  0
 19 21  1  0
 21 22  1  0
 22  2  1  0
 21  5  1  0
 18  9  1  0
 18 13  1  0
  1 23  1  0
  1 24  1  0
  1 25  1  0
  2 26  1  1
  3 27  1  0
  3 28  1  0
  4 29  1  0
  4 30  1  0
 10 31  1  0
 12 32  1  0
 14 33  1  0
 15 34  1  0
 16 35  1  0
 17 36  1  0
 22 37  1  0
 22 38  1  0
M  CHG  1   7  -1
M  END
>  <RMSD>  (32) 
0.1319131999368489

$$$$

     RDKit          3D

 67 73  0  0  0  0  0  0  0  0999 V2000
    7.1985   -3.2406   23.4916 C   0  0  0  0  0  0  0  0  0  0  0  0
    7.4028   -2.2428   22.3637 C   0  0  1  0  0  0  0  0  0  0  0  0
    6.1385   -1.9217   21.5521 C   0  0  0  0  0  0  0  0  0  0  0  0
    6.5092   -0.6757   20.9079 N   0  0  0  0  0  0  0  0  0  0  0  0
    5.8523   -0.0889   19.8058 C   0  0  0  0  0  0  0  0  0  0  0  0
    6.3089   -0.3447   18.5371 C   0  0  0  0  0  0  0  0  0  0  0  0
    5.7754    0.1863   17.4108 N   0  0  0  0  0  0  0  0  0  0  0  0
    4.7671    1.0135   17.5763 C   0  0  0  0  0  0  0  0  0  0  0  0
    4.2176    1.3863   18.8384 C   0  0  0  0  0  0  0  0  0  0  0  0
    3.1364    2.2988   18.9474 C   0  0  0  0  0  0  0  0  0  0  0  0
    2.6167    2.6198   20.1712 C   0  0  0  0  0  0  0  0  0  0  0  0
    3.1536    2.0529   21.3461 C   0  0  0  0  0  0  0  0  0  0  0  0
    4.2134    1.1797   21.2729 C   0  0  0  0  0  0  0  0  0  0  0  0
    4.7658    0.8149   20.0092 C   0  0  0  0  0  0  0  0  0  0  0  0
    7.6607   -0.1040   21.4037 C   0  0  0  0  0  0  0  0  0  0  0  0
    8.2506    0.8097   20.8698 O   0  0  0  0  0  0  0  0  0  0  0  0
    8.0060   -0.8466   22.7162 C   0  0  1  0  0  0  0  0  0  0  0  0
    7.2800   -0.1696   23.9079 C   0  0  0  0  0  0  0  0  0  0  0  0
    7.9114    1.0770   24.2941 N   0  0  0  0  0  0  0  0  0  0  0  0
    7.1568    2.3120   24.4025 C   0  0  0  0  0  0  0  0  0  0  0  0
    7.1075    3.0555   23.0606 C   0  0  0  0  0  0  0  0  0  0  0  0
    6.5086    4.4136   23.2056 N   0  0  2  0  0  0  0  0  0  0  0  0
    5.0000    4.4345   23.5117 C   0  0  0  0  0  0  0  0  0  0  0  0
    4.4420    5.3523   22.4164 C   0  0  2  0  0  0  0  0  0  0  0  0
    5.3133    4.9943   21.2133 C   0  0  0  0  0  0  0  0  0  0  0  0
    6.5975    5.3204   21.9797 C   0  0  1  0  0  0  0  0  0  0  0  0
    6.2574    6.7314   22.4592 C   0  0  0  0  0  0  0  0  0  0  0  0
    4.8396    6.6964   22.7043 O   0  0  0  0  0  0  0  0  0  0  0  0
    9.2287    1.0735   24.6584 C   0  0  0  0  0  0  0  0  0  0  0  0
    9.7177    1.8850   25.4304 O   0  0  0  0  0  0  0  0  0  0  0  0
   10.0529    0.0450   23.9414 C   0  0  0  0  0  0  0  0  0  0  0  0
   11.4228    0.0537   24.1819 C   0  0  0  0  0  0  0  0  0  0  0  0
   12.2711   -0.7066   23.4037 C   0  0  0  0  0  0  0  0  0  0  0  0
   11.7181   -1.4949   22.3971 C   0  0  0  0  0  0  0  0  0  0  0  0
   12.7606   -2.4170   21.3567 Cl  0  0  0  0  0  0  0  0  0  0  0  0
   10.3549   -1.5753   22.1972 C   0  0  0  0  0  0  0  0  0  0  0  0
    9.4885   -0.8198   22.9927 C   0  0  0  0  0  0  0  0  0  0  0  0
    8.1153   -3.3858   24.0715 H   0  0  0  0  0  0  0  0  0  0  0  0
    6.8983   -4.2132   23.0865 H   0  0  0  0  0  0  0  0  0  0  0  0
    6.4113   -2.9150   24.1780 H   0  0  0  0  0  0  0  0  0  0  0  0
    8.1020   -2.6903   21.6519 H   0  0  0  0  0  0  0  0  0  0  0  0
    5.2554   -1.8140   22.2038 H   0  0  0  0  0  0  0  0  0  0  0  0
    5.9145   -2.6932   20.8065 H   0  0  0  0  0  0  0  0  0  0  0  0
    7.1606   -1.0096   18.4068 H   0  0  0  0  0  0  0  0  0  0  0  0
    4.3106    1.4304   16.6799 H   0  0  0  0  0  0  0  0  0  0  0  0
    2.7271    2.7218   18.0357 H   0  0  0  0  0  0  0  0  0  0  0  0
    1.7868    3.3163   20.2451 H   0  0  0  0  0  0  0  0  0  0  0  0
    2.7146    2.2998   22.3089 H   0  0  0  0  0  0  0  0  0  0  0  0
    4.6207    0.7661   22.1918 H   0  0  0  0  0  0  0  0  0  0  0  0
    7.3136   -0.8558   24.7624 H   0  0  0  0  0  0  0  0  0  0  0  0
    6.2288    0.0313   23.6820 H   0  0  0  0  0  0  0  0  0  0  0  0
    6.1445    2.0609   24.7511 H   0  0  0  0  0  0  0  0  0  0  0  0
    7.6579    2.9119   25.1697 H   0  0  0  0  0  0  0  0  0  0  0  0
    6.5327    2.4726   22.3350 H   0  0  0  0  0  0  0  0  0  0  0  0
    8.1156    3.1495   22.6424 H   0  0  0  0  0  0  0  0  0  0  0  0
    7.0296    4.8560   23.9805 H   0  0  0  0  0  0  0  0  0  0  0  0
    4.8429    4.8296   24.5150 H   0  0  0  0  0  0  0  0  0  0  0  0
    4.6055    3.4200   23.4201 H   0  0  0  0  0  0  0  0  0  0  0  0
    3.3578    5.3178   22.3006 H   0  0  0  0  0  0  0  0  0  0  0  0
    5.1491    5.6732   20.3783 H   0  0  0  0  0  0  0  0  0  0  0  0
    5.2264    3.9539   20.8856 H   0  0  0  0  0  0  0  0  0  0  0  0
    7.5544    5.2037   21.4721 H   0  0  0  0  0  0  0  0  0  0  0  0
    6.4703    7.4797   21.6892 H   0  0  0  0  0  0  0  0  0  0  0  0
    6.7829    7.0014   23.3843 H   0  0  0  0  0  0  0  0  0  0  0  0
   11.7954    0.7094   24.9602 H   0  0  0  0  0  0  0  0  0  0  0  0
   13.3456   -0.6540   23.5235 H   0  0  0  0  0  0  0  0  0  0  0  0
    9.9813   -2.2131   21.4050 H   0  0  0  0  0  0  0  0  0  0  0  0
  1  2  1  0
  2  3  1  0
  3  4  1  0
  4  5  1  0
  5  6  2  0
  6  7  1  0
  7  8  2  0
  8  9  1  0
  9 10  2  0
 10 11  1  0
 11 12  2  0
 12 13  1  0
 13 14  2  0
  4 15  1  0
 15 16  2  0
 15 17  1  0
 17 18  1  1
 18 19  1  0
 19 20  1  0
 20 21  1  0
 21 22  1  0
 22 23  1  0
 23 24  1  0
 24 25  1  0
 25 26  1  0
 26 27  1  0
 27 28  1  0
 19 29  1  0
 29 30  2  0
 29 31  1  0
 31 32  2  0
 32 33  1  0
 33 34  2  0
 34 35  1  0
 34 36  1  0
 36 37  2  0
 17  2  1  0
 26 22  1  0
 37 31  1  0
 14  5  1  0
 37 17  1  0
 14  9  1  0
 28 24  1  0
  1 38  1  0
  1 39  1  0
  1 40  1  0
  2 41  1  6
  3 42  1  0
  3 43  1  0
  6 44  1  0
  8 45  1  0
 10 46  1  0
 11 47  1  0
 12 48  1  0
 13 49  1  0
 18 50  1  0
 18 51  1  0
 20 52  1  0
 20 53  1  0
 21 54  1  0
 21 55  1  0
 22 56  1  1
 23 57  1  0
 23 58  1  0
 24 59  1  6
 25 60  1  0
 25 61  1  0
 26 62  1  6
 27 63  1  0
 27 64  1  0
 32 65  1  0
 33 66  1  0
 36 67  1  0
M  CHG  1  22   1
M  END
>  <RMSD>  (33) 
0.18020021279290663

$$$$

     RDKit          3D

 72 77  0  0  0  0  0  0  0  0999 V2000
    8.4979    7.3433   23.6651 C   0  0  0  0  0  0  0  0  0  0  0  0
    7.8775    6.1410   22.9903 C   0  0  1  0  0  0  0  0  0  0  0  0
    6.9079    5.3924   23.9001 C   0  0  0  0  0  0  0  0  0  0  0  0
    6.2054    4.2681   23.1675 N   0  0  2  0  0  0  0  0  0  0  0  0
    7.0413    3.0125   23.0635 C   0  0  0  0  0  0  0  0  0  0  0  0
    7.0860    2.2356   24.3867 C   0  0  0  0  0  0  0  0  0  0  0  0
    7.8570    1.0172   24.2972 N   0  0  0  0  0  0  0  0  0  0  0  0
    7.2364   -0.2361   23.9136 C   0  0  0  0  0  0  0  0  0  0  0  0
    7.9751   -0.8897   22.7255 C   0  0  2  0  0  0  0  0  0  0  0  0
    7.6360   -0.1242   21.4318 C   0  0  0  0  0  0  0  0  0  0  0  0
    8.2244    0.8179   20.9373 O   0  0  0  0  0  0  0  0  0  0  0  0
    6.5002   -0.6908   20.9075 N   0  0  0  0  0  0  0  0  0  0  0  0
    5.8525   -0.0910   19.8088 C   0  0  0  0  0  0  0  0  0  0  0  0
    6.3102   -0.3431   18.5396 C   0  0  0  0  0  0  0  0  0  0  0  0
    5.7802    0.1962   17.4155 N   0  0  0  0  0  0  0  0  0  0  0  0
    4.7708    1.0195   17.5752 C   0  0  0  0  0  0  0  0  0  0  0  0
    4.2173    1.3835   18.8378 C   0  0  0  0  0  0  0  0  0  0  0  0
    3.1312    2.2884   18.9497 C   0  0  0  0  0  0  0  0  0  0  0  0
    2.6134    2.6151   20.1701 C   0  0  0  0  0  0  0  0  0  0  0  0
    3.1559    2.0580   21.3474 C   0  0  0  0  0  0  0  0  0  0  0  0
    4.2157    1.1829   21.2693 C   0  0  0  0  0  0  0  0  0  0  0  0
    4.7690    0.8157   20.0093 C   0  0  0  0  0  0  0  0  0  0  0  0
    6.1345   -1.9525   21.5227 C   0  0  0  0  0  0  0  0  0  0  0  0
    7.3914   -2.2858   22.3436 C   0  0  2  0  0  0  0  0  0  0  0  0
    7.1690   -3.3003   23.4591 C   0  0  0  0  0  0  0  0  0  0  0  0
    9.4555   -0.8549   23.0083 C   0  0  0  0  0  0  0  0  0  0  0  0
   10.3275   -1.5936   22.1968 C   0  0  0  0  0  0  0  0  0  0  0  0
   11.6923   -1.5212   22.4055 C   0  0  0  0  0  0  0  0  0  0  0  0
   12.7541   -2.4185   21.3489 Cl  0  0  0  0  0  0  0  0  0  0  0  0
   12.2401   -0.7173   23.4059 C   0  0  0  0  0  0  0  0  0  0  0  0
   11.3844    0.0255   24.2008 C   0  0  0  0  0  0  0  0  0  0  0  0
   10.0075   -0.0078   23.9822 C   0  0  0  0  0  0  0  0  0  0  0  0
    9.1633    1.0056   24.7067 C   0  0  0  0  0  0  0  0  0  0  0  0
    9.6211    1.7578   25.5530 O   0  0  0  0  0  0  0  0  0  0  0  0
    5.5960    4.8047   21.8664 C   0  0  1  0  0  0  0  0  0  0  0  0
    4.3582    5.6669   22.1132 C   0  0  0  0  0  0  0  0  0  0  0  0
    6.6041    5.6407   21.0764 C   0  0  0  0  0  0  0  0  0  0  0  0
    7.1906    6.6513   21.8603 O   0  0  0  0  0  0  0  0  0  0  0  0
    9.0761    7.0888   24.5580 H   0  0  0  0  0  0  0  0  0  0  0  0
    7.7134    8.0527   23.9418 H   0  0  0  0  0  0  0  0  0  0  0  0
    9.1592    7.8313   22.9527 H   0  0  0  0  0  0  0  0  0  0  0  0
    8.6705    5.4559   22.6488 H   0  0  0  0  0  0  0  0  0  0  0  0
    6.1532    6.0940   24.2672 H   0  0  0  0  0  0  0  0  0  0  0  0
    7.4391    4.9965   24.7694 H   0  0  0  0  0  0  0  0  0  0  0  0
    5.3979    3.9908   23.7472 H   0  0  0  0  0  0  0  0  0  0  0  0
    8.0512    3.2695   22.7408 H   0  0  0  0  0  0  0  0  0  0  0  0
    6.6152    2.3767   22.2843 H   0  0  0  0  0  0  0  0  0  0  0  0
    7.5446    2.8199   25.1846 H   0  0  0  0  0  0  0  0  0  0  0  0
    6.0707    1.9742   24.6992 H   0  0  0  0  0  0  0  0  0  0  0  0
    7.2884   -0.9252   24.7631 H   0  0  0  0  0  0  0  0  0  0  0  0
    6.1815   -0.0597   23.6838 H   0  0  0  0  0  0  0  0  0  0  0  0
    7.1608   -1.0078   18.4034 H   0  0  0  0  0  0  0  0  0  0  0  0
    4.3152    1.4402   16.6781 H   0  0  0  0  0  0  0  0  0  0  0  0
    2.7214    2.7085   18.0367 H   0  0  0  0  0  0  0  0  0  0  0  0
    1.7780    3.3064   20.2448 H   0  0  0  0  0  0  0  0  0  0  0  0
    2.7350    2.3288   22.3114 H   0  0  0  0  0  0  0  0  0  0  0  0
    4.6101    0.7571   22.1867 H   0  0  0  0  0  0  0  0  0  0  0  0
    5.2492   -1.8460   22.1689 H   0  0  0  0  0  0  0  0  0  0  0  0
    5.9061   -2.6994   20.7542 H   0  0  0  0  0  0  0  0  0  0  0  0
    8.1147   -2.7110   21.6405 H   0  0  0  0  0  0  0  0  0  0  0  0
    8.0758   -3.4511   24.0557 H   0  0  0  0  0  0  0  0  0  0  0  0
    6.3673   -2.9858   24.1367 H   0  0  0  0  0  0  0  0  0  0  0  0
    6.8744   -4.2718   23.0439 H   0  0  0  0  0  0  0  0  0  0  0  0
    9.9625   -2.2253   21.3925 H   0  0  0  0  0  0  0  0  0  0  0  0
   13.3178   -0.6632   23.5279 H   0  0  0  0  0  0  0  0  0  0  0  0
   11.7546    0.6720   24.9890 H   0  0  0  0  0  0  0  0  0  0  0  0
    5.3228    3.9236   21.2764 H   0  0  0  0  0  0  0  0  0  0  0  0
    3.9431    5.9340   21.1325 H   0  0  0  0  0  0  0  0  0  0  0  0
    3.5796    5.1550   22.6909 H   0  0  0  0  0  0  0  0  0  0  0  0
    4.6244    6.6018   22.6176 H   0  0  0  0  0  0  0  0  0  0  0  0
    7.3651    5.0082   20.6058 H   0  0  0  0  0  0  0  0  0  0  0  0
    6.0839    6.1637   20.2670 H   0  0  0  0  0  0  0  0  0  0  0  0
  1  2  1  0
  2  3  1  0
  3  4  1  0
  4  5  1  0
  5  6  1  0
  6  7  1  0
  7  8  1  0
  9  8  1  1
  9 10  1  0
 10 11  2  0
 10 12  1  0
 12 13  1  0
 13 14  2  0
 14 15  1  0
 15 16  2  0
 16 17  1  0
 17 18  2  0
 18 19  1  0
 19 20  2  0
 20 21  1  0
 21 22  2  0
 12 23  1  0
 23 24  1  0
 24 25  1  0
  9 26  1  0
 26 27  2  0
 27 28  1  0
 28 29  1  0
 28 30  2  0
 30 31  1  0
 31 32  2  0
 32 33  1  0
 33 34  2  0
  4 35  1  0
 35 36  1  0
 35 37  1  0
 37 38  1  0
 38  2  1  0
 33  7  1  0
 24  9  1  0
 32 26  1  0
 22 13  1  0
 22 17  1  0
  1 39  1  0
  1 40  1  0
  1 41  1  0
  2 42  1  6
  3 43  1  0
  3 44  1  0
  4 45  1  1
  5 46  1  0
  5 47  1  0
  6 48  1  0
  6 49  1  0
  8 50  1  0
  8 51  1  0
 14 52  1  0
 16 53  1  0
 18 54  1  0
 19 55  1  0
 20 56  1  0
 21 57  1  0
 23 58  1  0
 23 59  1  0
 24 60  1  6
 25 61  1  0
 25 62  1  0
 25 63  1  0
 27 64  1  0
 30 65  1  0
 31 66  1  0
 35 67  1  6
 36 68  1  0
 36 69  1  0
 36 70  1  0
 37 71  1  0
 37 72  1  0
M  CHG  1   4   1
M  END
>  <RMSD>  (34) 
0.18485734623584377

$$$$

     RDKit          3D

 56 61  0  0  0  0  0  0  0  0999 V2000
   -7.2344   -5.0323  -23.0363 C   0  0  0  0  0  0  0  0  0  0  0  0
   -7.5625   -3.8769  -22.1005 C   0  0  1  0  0  0  0  0  0  0  0  0
   -6.3536   -3.2982  -21.3560 C   0  0  0  0  0  0  0  0  0  0  0  0
   -6.8091   -1.9732  -20.9769 N   0  0  0  0  0  0  0  0  0  0  0  0
   -6.1743   -1.1555  -20.0049 C   0  0  0  0  0  0  0  0  0  0  0  0
   -6.5465   -1.2445  -18.6862 C   0  0  0  0  0  0  0  0  0  0  0  0
   -6.0159   -0.5015  -17.6833 N   0  0  0  0  0  0  0  0  0  0  0  0
   -5.0742    0.3603  -17.9985 C   0  0  0  0  0  0  0  0  0  0  0  0
   -4.5722    0.5399  -19.3214 C   0  0  0  0  0  0  0  0  0  0  0  0
   -3.5566    1.4894  -19.6311 C   0  0  0  0  0  0  0  0  0  0  0  0
   -3.1044    1.6252  -20.9166 C   0  0  0  0  0  0  0  0  0  0  0  0
   -3.6292    0.8158  -21.9468 C   0  0  0  0  0  0  0  0  0  0  0  0
   -4.6182   -0.1001  -21.6780 C   0  0  0  0  0  0  0  0  0  0  0  0
   -5.1226   -0.2507  -20.3575 C   0  0  0  0  0  0  0  0  0  0  0  0
   -7.8825   -1.5272  -21.7254 C   0  0  0  0  0  0  0  0  0  0  0  0
   -8.4223   -0.4569  -21.5777 O   0  0  0  0  0  0  0  0  0  0  0  0
   -8.2341   -2.6382  -22.7533 C   0  0  1  0  0  0  0  0  0  0  0  0
   -7.5863   -2.2903  -24.1207 C   0  0  0  0  0  0  0  0  0  0  0  0
   -8.1517   -1.0862  -24.6945 N   0  0  0  0  0  0  0  0  0  0  0  0
   -7.3248   -0.2675  -25.5532 C   0  0  0  0  0  0  0  0  0  0  0  0
   -7.0010    1.0679  -24.9668 C   0  0  0  0  0  0  0  0  0  0  0  0
   -6.8470    2.2625  -25.6919 C   0  0  0  0  0  0  0  0  0  0  0  0
   -6.4932    3.2058  -24.7610 C   0  0  0  0  0  0  0  0  0  0  0  0
   -6.4583    2.5479  -23.5815 N   0  0  0  0  0  0  0  0  0  0  0  0
   -6.7523    1.2437  -23.6691 N   0  0  0  0  0  0  0  0  0  0  0  0
   -9.4911   -0.8135  -24.6481 C   0  0  0  0  0  0  0  0  0  0  0  0
   -9.9828    0.1403  -25.2376 O   0  0  0  0  0  0  0  0  0  0  0  0
  -10.3263   -1.7776  -23.8489 C   0  0  0  0  0  0  0  0  0  0  0  0
  -11.7178   -1.7194  -23.9767 C   0  0  0  0  0  0  0  0  0  0  0  0
  -12.5297   -2.5736  -23.2564 C   0  0  0  0  0  0  0  0  0  0  0  0
  -11.9219   -3.4972  -22.4154 C   0  0  0  0  0  0  0  0  0  0  0  0
  -12.6937   -4.3312  -21.6993 F   0  0  0  0  0  0  0  0  0  0  0  0
  -10.5527   -3.5856  -22.2668 C   0  0  0  0  0  0  0  0  0  0  0  0
   -9.7299   -2.7086  -22.9806 C   0  0  0  0  0  0  0  0  0  0  0  0
   -6.8787   -5.9029  -22.4786 H   0  0  0  0  0  0  0  0  0  0  0  0
   -8.1091   -5.3407  -23.6186 H   0  0  0  0  0  0  0  0  0  0  0  0
   -6.4522   -4.7547  -23.7488 H   0  0  0  0  0  0  0  0  0  0  0  0
   -8.2295   -4.2537  -21.3196 H   0  0  0  0  0  0  0  0  0  0  0  0
   -6.0984   -3.8851  -20.4715 H   0  0  0  0  0  0  0  0  0  0  0  0
   -5.4700   -3.2735  -22.0163 H   0  0  0  0  0  0  0  0  0  0  0  0
   -7.3324   -1.9378  -18.3947 H   0  0  0  0  0  0  0  0  0  0  0  0
   -4.6527    0.9658  -17.1941 H   0  0  0  0  0  0  0  0  0  0  0  0
   -3.1506    2.1105  -18.8367 H   0  0  0  0  0  0  0  0  0  0  0  0
   -2.3312    2.3522  -21.1536 H   0  0  0  0  0  0  0  0  0  0  0  0
   -3.2750    0.9391  -22.9674 H   0  0  0  0  0  0  0  0  0  0  0  0
   -5.0387   -0.6970  -22.4827 H   0  0  0  0  0  0  0  0  0  0  0  0
   -7.7260   -3.1230  -24.8246 H   0  0  0  0  0  0  0  0  0  0  0  0
   -6.5100   -2.1270  -23.9834 H   0  0  0  0  0  0  0  0  0  0  0  0
   -6.3951   -0.8098  -25.7551 H   0  0  0  0  0  0  0  0  0  0  0  0
   -7.8206   -0.1465  -26.5203 H   0  0  0  0  0  0  0  0  0  0  0  0
   -6.9651    2.4011  -26.7556 H   0  0  0  0  0  0  0  0  0  0  0  0
   -6.2666    4.2635  -24.8574 H   0  0  0  0  0  0  0  0  0  0  0  0
   -6.2270    2.9301  -22.6832 H   0  0  0  0  0  0  0  0  0  0  0  0
  -12.1605   -0.9947  -24.6500 H   0  0  0  0  0  0  0  0  0  0  0  0
  -13.6137   -2.5344  -23.3257 H   0  0  0  0  0  0  0  0  0  0  0  0
  -10.1544   -4.3382  -21.5958 H   0  0  0  0  0  0  0  0  0  0  0  0
  1  2  1  0
  2  3  1  0
  3  4  1  0
  4  5  1  0
  5  6  2  0
  6  7  1  0
  7  8  2  0
  8  9  1  0
  9 10  2  0
 10 11  1  0
 11 12  2  0
 12 13  1  0
 13 14  2  0
  4 15  1  0
 15 16  2  0
 15 17  1  0
 17 18  1  6
 18 19  1  0
 19 20  1  0
 20 21  1  0
 21 22  1  0
 22 23  2  0
 23 24  1  0
 24 25  1  0
 19 26  1  0
 26 27  2  0
 26 28  1  0
 28 29  2  0
 29 30  1  0
 30 31  2  0
 31 32  1  0
 31 33  1  0
 33 34  2  0
 17  2  1  0
 25 21  2  0
 34 28  1  0
 14  5  1  0
 34 17  1  0
 14  9  1  0
  1 35  1  0
  1 36  1  0
  1 37  1  0
  2 38  1  1
  3 39  1  0
  3 40  1  0
  6 41  1  0
  8 42  1  0
 10 43  1  0
 11 44  1  0
 12 45  1  0
 13 46  1  0
 18 47  1  0
 18 48  1  0
 20 49  1  0
 20 50  1  0
 22 51  1  0
 23 52  1  0
 24 53  1  0
 29 54  1  0
 30 55  1  0
 33 56  1  0
M  END
>  <RMSD>  (35) 
0.05500358211140555

$$$$

     RDKit          3D

 47 50  0  0  0  0  0  0  0  0999 V2000
   10.2863    1.8987   23.0229 C   0  0  0  0  0  0  0  0  0  0  0  0
   10.1149    0.5881   23.7861 C   0  0  1  0  0  0  0  0  0  0  0  0
    8.9927    0.6769   24.8263 C   0  0  0  0  0  0  0  0  0  0  0  0
    7.6996    0.3488   24.0392 C   0  0  2  0  0  0  0  0  0  0  0  0
    6.7197   -0.4771   24.8423 C   0  0  0  0  0  0  0  0  0  0  0  0
    5.5314    0.0789   25.3063 C   0  0  0  0  0  0  0  0  0  0  0  0
    4.6279   -0.6893   26.0306 C   0  0  0  0  0  0  0  0  0  0  0  0
    4.9091   -2.0217   26.3080 C   0  0  0  0  0  0  0  0  0  0  0  0
    6.1049   -2.5808   25.8672 C   0  0  0  0  0  0  0  0  0  0  0  0
    7.0055   -1.8101   25.1447 C   0  0  0  0  0  0  0  0  0  0  0  0
    8.1251   -0.3915   22.8175 N   0  0  0  0  0  0  0  0  0  0  0  0
    7.5381    0.0152   21.5683 C   0  0  0  0  0  0  0  0  0  0  0  0
    7.9178    1.0067   20.9851 O   0  0  0  0  0  0  0  0  0  0  0  0
    6.4208   -0.8839   21.0058 C   0  0  0  0  0  0  0  0  0  0  0  0
    5.7507   -0.2226   19.8358 C   0  0  0  0  0  0  0  0  0  0  0  0
    6.2266   -0.4280   18.5706 C   0  0  0  0  0  0  0  0  0  0  0  0
    5.7561    0.1702   17.4485 N   0  0  0  0  0  0  0  0  0  0  0  0
    4.7729    1.0207   17.5854 C   0  0  0  0  0  0  0  0  0  0  0  0
    4.1941    1.3610   18.8366 C   0  0  0  0  0  0  0  0  0  0  0  0
    3.1465    2.3118   18.9464 C   0  0  0  0  0  0  0  0  0  0  0  0
    2.6277    2.6341   20.1709 C   0  0  0  0  0  0  0  0  0  0  0  0
    3.1365    2.0159   21.3383 C   0  0  0  0  0  0  0  0  0  0  0  0
    4.1469    1.0901   21.2567 C   0  0  0  0  0  0  0  0  0  0  0  0
    4.7043    0.7296   20.0021 C   0  0  0  0  0  0  0  0  0  0  0  0
    9.5896   -0.5274   22.8782 C   0  0  0  0  0  0  0  0  0  0  0  0
   10.7031    2.6736   23.6708 H   0  0  0  0  0  0  0  0  0  0  0  0
   10.9663    1.7548   22.1782 H   0  0  0  0  0  0  0  0  0  0  0  0
    9.3433    2.2610   22.6021 H   0  0  0  0  0  0  0  0  0  0  0  0
   11.0807    0.3103   24.2469 H   0  0  0  0  0  0  0  0  0  0  0  0
    9.1503   -0.0474   25.6323 H   0  0  0  0  0  0  0  0  0  0  0  0
    8.9295    1.6608   25.3022 H   0  0  0  0  0  0  0  0  0  0  0  0
    7.2127    1.3013   23.7694 H   0  0  0  0  0  0  0  0  0  0  0  0
    5.3159    1.1231   25.0896 H   0  0  0  0  0  0  0  0  0  0  0  0
    3.6983   -0.2403   26.3657 H   0  0  0  0  0  0  0  0  0  0  0  0
    4.1972   -2.6207   26.8669 H   0  0  0  0  0  0  0  0  0  0  0  0
    6.3332   -3.6208   26.0835 H   0  0  0  0  0  0  0  0  0  0  0  0
    7.9392   -2.2581   24.8078 H   0  0  0  0  0  0  0  0  0  0  0  0
    6.8853   -1.8249   20.6799 H   0  0  0  0  0  0  0  0  0  0  0  0
    5.7155   -1.1718   21.7968 H   0  0  0  0  0  0  0  0  0  0  0  0
    7.0552   -1.1167   18.4007 H   0  0  0  0  0  0  0  0  0  0  0  0
    4.3961    1.4912   16.6739 H   0  0  0  0  0  0  0  0  0  0  0  0
    2.7780    2.7892   18.0383 H   0  0  0  0  0  0  0  0  0  0  0  0
    1.8348    3.3740   20.2565 H   0  0  0  0  0  0  0  0  0  0  0  0
    2.7224    2.2823   22.3072 H   0  0  0  0  0  0  0  0  0  0  0  0
    4.5350    0.6264   22.1600 H   0  0  0  0  0  0  0  0  0  0  0  0
   10.0533   -0.5269   21.8849 H   0  0  0  0  0  0  0  0  0  0  0  0
    9.8172   -1.4926   23.3547 H   0  0  0  0  0  0  0  0  0  0  0  0
  1  2  1  0
  2  3  1  0
  3  4  1  0
  4  5  1  0
  5  6  2  0
  6  7  1  0
  7  8  2  0
  8  9  1  0
  9 10  2  0
  4 11  1  0
 11 12  1  0
 12 13  2  0
 12 14  1  0
 14 15  1  0
 15 16  2  0
 16 17  1  0
 17 18  2  0
 18 19  1  0
 19 20  2  0
 20 21  1  0
 21 22  2  0
 22 23  1  0
 23 24  2  0
 11 25  1  0
 25  2  1  0
 10  5  1  0
 24 15  1  0
 24 19  1  0
  1 26  1  0
  1 27  1  0
  1 28  1  0
  2 29  1  1
  3 30  1  0
  3 31  1  0
  4 32  1  6
  6 33  1  0
  7 34  1  0
  8 35  1  0
  9 36  1  0
 10 37  1  0
 14 38  1  0
 14 39  1  0
 16 40  1  0
 18 41  1  0
 20 42  1  0
 21 43  1  0
 22 44  1  0
 23 45  1  0
 25 46  1  0
 25 47  1  0
M  END
>  <RMSD>  (36) 
0.04865391284363875

$$$$

     RDKit          3D

 42 45  0  0  0  0  0  0  0  0999 V2000
   -8.5121   -0.6925  -21.2419 O   0  0  0  0  0  0  0  0  0  0  0  0
   -8.0308   -1.7980  -21.3803 C   0  0  0  0  0  0  0  0  0  0  0  0
   -8.7904   -3.0016  -21.9417 C   0  0  1  0  0  0  0  0  0  0  0  0
  -10.1564   -2.6191  -22.4778 C   0  0  0  0  0  0  0  0  0  0  0  0
  -10.3202   -1.7342  -23.5448 C   0  0  0  0  0  0  0  0  0  0  0  0
  -11.5923   -1.3565  -23.9639 C   0  0  0  0  0  0  0  0  0  0  0  0
  -12.7281   -1.8718  -23.3415 C   0  0  0  0  0  0  0  0  0  0  0  0
  -14.2977   -1.3284  -23.8441 Cl  0  0  0  0  0  0  0  0  0  0  0  0
  -12.5773   -2.8116  -22.3176 C   0  0  0  0  0  0  0  0  0  0  0  0
  -13.9515   -3.5490  -21.5566 Cl  0  0  0  0  0  0  0  0  0  0  0  0
  -11.2989   -3.1654  -21.8877 C   0  0  0  0  0  0  0  0  0  0  0  0
   -7.8915   -3.7641  -22.9153 C   0  0  0  0  0  0  0  0  0  0  0  0
   -6.6588   -4.2767  -22.1822 C   0  0  2  0  0  0  0  0  0  0  0  0
   -7.0033   -5.2396  -21.2007 O   0  0  0  0  0  0  0  0  0  0  0  0
   -5.9037   -3.1409  -21.5021 C   0  0  0  0  0  0  0  0  0  0  0  0
   -6.7460   -2.0873  -20.9406 N   0  0  0  0  0  0  0  0  0  0  0  0
   -6.1552   -1.1896  -20.0015 C   0  0  0  0  0  0  0  0  0  0  0  0
   -6.5567   -1.2296  -18.6868 C   0  0  0  0  0  0  0  0  0  0  0  0
   -6.0422   -0.4677  -17.6896 N   0  0  0  0  0  0  0  0  0  0  0  0
   -5.0892    0.3803  -18.0079 C   0  0  0  0  0  0  0  0  0  0  0  0
   -4.5687    0.5314  -19.3283 C   0  0  0  0  0  0  0  0  0  0  0  0
   -3.5346    1.4680  -19.6240 C   0  0  0  0  0  0  0  0  0  0  0  0
   -3.0778    1.6085  -20.9086 C   0  0  0  0  0  0  0  0  0  0  0  0
   -3.6412    0.8354  -21.9489 C   0  0  0  0  0  0  0  0  0  0  0  0
   -4.6473   -0.0659  -21.6925 C   0  0  0  0  0  0  0  0  0  0  0  0
   -5.1201   -0.2627  -20.3624 C   0  0  0  0  0  0  0  0  0  0  0  0
   -8.9597   -3.6741  -21.0923 H   0  0  0  0  0  0  0  0  0  0  0  0
   -9.4531   -1.2946  -24.0351 H   0  0  0  0  0  0  0  0  0  0  0  0
  -11.7187   -0.6373  -24.7679 H   0  0  0  0  0  0  0  0  0  0  0  0
  -11.2096   -3.8816  -21.0717 H   0  0  0  0  0  0  0  0  0  0  0  0
   -7.5924   -3.1238  -23.7529 H   0  0  0  0  0  0  0  0  0  0  0  0
   -8.4347   -4.6165  -23.3387 H   0  0  0  0  0  0  0  0  0  0  0  0
   -5.9640   -4.7295  -22.9049 H   0  0  0  0  0  0  0  0  0  0  0  0
   -7.2534   -6.0478  -21.6689 H   0  0  0  0  0  0  0  0  0  0  0  0
   -5.2012   -2.7138  -22.2272 H   0  0  0  0  0  0  0  0  0  0  0  0
   -5.2976   -3.5508  -20.6900 H   0  0  0  0  0  0  0  0  0  0  0  0
   -7.3334   -1.9311  -18.3912 H   0  0  0  0  0  0  0  0  0  0  0  0
   -4.6804    1.0000  -17.2081 H   0  0  0  0  0  0  0  0  0  0  0  0
   -3.1237    2.0757  -18.8210 H   0  0  0  0  0  0  0  0  0  0  0  0
   -2.2983    2.3325  -21.1428 H   0  0  0  0  0  0  0  0  0  0  0  0
   -3.2882    0.9630  -22.9692 H   0  0  0  0  0  0  0  0  0  0  0  0
   -5.1005   -0.6231  -22.5069 H   0  0  0  0  0  0  0  0  0  0  0  0
  1  2  2  0
  2  3  1  0
  3  4  1  0
  4  5  2  0
  5  6  1  0
  6  7  2  0
  7  8  1  0
  7  9  1  0
  9 10  1  0
  9 11  2  0
  3 12  1  0
 12 13  1  0
 13 14  1  0
 13 15  1  0
 15 16  1  0
 16 17  1  0
 17 18  2  0
 18 19  1  0
 19 20  2  0
 20 21  1  0
 21 22  2  0
 22 23  1  0
 23 24  2  0
 24 25  1  0
 25 26  2  0
 16  2  1  0
 26 17  1  0
 11  4  1  0
 26 21  1  0
  3 27  1  1
  5 28  1  0
  6 29  1  0
 11 30  1  0
 12 31  1  0
 12 32  1  0
 13 33  1  6
 14 34  1  0
 15 35  1  0
 15 36  1  0
 18 37  1  0
 20 38  1  0
 22 39  1  0
 23 40  1  0
 24 41  1  0
 25 42  1  0
M  END
>  <RMSD>  (37) 
0.08933800217336374

$$$$

     RDKit          3D

 58 63  0  0  0  0  0  0  0  0999 V2000
    7.0785   -3.2746   23.5143 C   0  0  0  0  0  0  0  0  0  0  0  0
    7.3654   -2.2745   22.4018 C   0  0  1  0  0  0  0  0  0  0  0  0
    6.1478   -1.9222   21.5364 C   0  0  0  0  0  0  0  0  0  0  0  0
    6.5390   -0.6568   20.9406 N   0  0  0  0  0  0  0  0  0  0  0  0
    5.8861   -0.0563   19.8281 C   0  0  0  0  0  0  0  0  0  0  0  0
    6.3086   -0.3445   18.5560 C   0  0  0  0  0  0  0  0  0  0  0  0
    5.7644    0.1745   17.4257 N   0  0  0  0  0  0  0  0  0  0  0  0
    4.7623    1.0103   17.5684 C   0  0  0  0  0  0  0  0  0  0  0  0
    4.2035    1.3831   18.8253 C   0  0  0  0  0  0  0  0  0  0  0  0
    3.1177    2.2979   18.9431 C   0  0  0  0  0  0  0  0  0  0  0  0
    2.6107    2.6217   20.1707 C   0  0  0  0  0  0  0  0  0  0  0  0
    3.1481    2.0441   21.3422 C   0  0  0  0  0  0  0  0  0  0  0  0
    4.1923    1.1551   21.2537 C   0  0  0  0  0  0  0  0  0  0  0  0
    4.7668    0.8189   19.9980 C   0  0  0  0  0  0  0  0  0  0  0  0
    7.5527   -0.0229   21.6244 C   0  0  0  0  0  0  0  0  0  0  0  0
    8.0253    1.0499   21.3079 O   0  0  0  0  0  0  0  0  0  0  0  0
    7.9337   -0.8994   22.8416 C   0  0  1  0  0  0  0  0  0  0  0  0
    7.2220   -0.3469   24.1045 C   0  0  0  0  0  0  0  0  0  0  0  0
    7.6766    1.0051   24.4103 N   0  0  0  0  0  0  0  0  0  0  0  0
    6.7783    1.8441   25.2050 C   0  0  0  0  0  0  0  0  0  0  0  0
    6.9623    3.3197   25.0105 C   0  0  0  0  0  0  0  0  0  0  0  0
    7.2821    4.1411   25.9711 N   0  0  0  0  0  0  0  0  0  0  0  0
    7.3723    5.3977   25.4314 N   0  0  0  0  0  0  0  0  0  0  0  0
    7.0536    5.2939   24.1684 C   0  0  0  0  0  0  0  0  0  0  0  0
    6.7729    4.0024   23.8415 N   0  0  0  0  0  0  0  0  0  0  0  0
    6.2828    3.5264   22.5641 C   0  0  0  0  0  0  0  0  0  0  0  0
    9.0209    1.2964   24.4055 C   0  0  0  0  0  0  0  0  0  0  0  0
    9.4835    2.3349   24.8487 O   0  0  0  0  0  0  0  0  0  0  0  0
    9.9307    0.2620   23.8143 C   0  0  0  0  0  0  0  0  0  0  0  0
   11.3084    0.4436   23.9675 C   0  0  0  0  0  0  0  0  0  0  0  0
   12.2026   -0.4606   23.4290 C   0  0  0  0  0  0  0  0  0  0  0  0
   11.6802   -1.5555   22.7450 C   0  0  0  0  0  0  0  0  0  0  0  0
   12.5318   -2.4440   22.2046 F   0  0  0  0  0  0  0  0  0  0  0  0
   10.3260   -1.7615   22.5799 C   0  0  0  0  0  0  0  0  0  0  0  0
    9.4214   -0.8355   23.1071 C   0  0  0  0  0  0  0  0  0  0  0  0
    6.2572   -2.9310   24.1524 H   0  0  0  0  0  0  0  0  0  0  0  0
    7.9514   -3.4180   24.1606 H   0  0  0  0  0  0  0  0  0  0  0  0
    6.7972   -4.2527   23.1092 H   0  0  0  0  0  0  0  0  0  0  0  0
    8.0897   -2.7224   21.7167 H   0  0  0  0  0  0  0  0  0  0  0  0
    5.9535   -2.6654   20.7589 H   0  0  0  0  0  0  0  0  0  0  0  0
    5.2399   -1.8421   22.1602 H   0  0  0  0  0  0  0  0  0  0  0  0
    7.1443   -1.0254   18.4082 H   0  0  0  0  0  0  0  0  0  0  0  0
    4.3337    1.4363   16.6584 H   0  0  0  0  0  0  0  0  0  0  0  0
    2.7064    2.7417   18.0374 H   0  0  0  0  0  0  0  0  0  0  0  0
    1.7886    3.3273   20.2611 H   0  0  0  0  0  0  0  0  0  0  0  0
    2.7537    2.3183   22.3166 H   0  0  0  0  0  0  0  0  0  0  0  0
    4.6105    0.7216   22.1578 H   0  0  0  0  0  0  0  0  0  0  0  0
    6.1408   -0.3209   23.9306 H   0  0  0  0  0  0  0  0  0  0  0  0
    7.4012   -1.0308   24.9521 H   0  0  0  0  0  0  0  0  0  0  0  0
    5.7464    1.5807   24.9240 H   0  0  0  0  0  0  0  0  0  0  0  0
    6.8836    1.6584   26.2851 H   0  0  0  0  0  0  0  0  0  0  0  0
    6.9845    6.1126   23.4621 H   0  0  0  0  0  0  0  0  0  0  0  0
    6.2686    2.4403   22.5627 H   0  0  0  0  0  0  0  0  0  0  0  0
    5.2726    3.8944   22.3491 H   0  0  0  0  0  0  0  0  0  0  0  0
    6.9528    3.8448   21.7637 H   0  0  0  0  0  0  0  0  0  0  0  0
   11.6707    1.3078   24.5142 H   0  0  0  0  0  0  0  0  0  0  0  0
   13.2793   -0.3361   23.5140 H   0  0  0  0  0  0  0  0  0  0  0  0
    9.9963   -2.6432   22.0413 H   0  0  0  0  0  0  0  0  0  0  0  0
  1  2  1  0
  2  3  1  0
  3  4  1  0
  4  5  1  0
  5  6  2  0
  6  7  1  0
  7  8  2  0
  8  9  1  0
  9 10  2  0
 10 11  1  0
 11 12  2  0
 12 13  1  0
 13 14  2  0
  4 15  1  0
 15 16  2  0
 15 17  1  0
 17 18  1  1
 18 19  1  0
 19 20  1  0
 20 21  1  0
 21 22  2  0
 22 23  1  0
 23 24  2  0
 24 25  1  0
 25 26  1  0
 19 27  1  0
 27 28  2  0
 27 29  1  0
 29 30  2  0
 30 31  1  0
 31 32  2  0
 32 33  1  0
 32 34  1  0
 34 35  2  0
 17  2  1  0
 25 21  1  0
 35 29  1  0
 14  5  1  0
 35 17  1  0
 14  9  1  0
  1 36  1  0
  1 37  1  0
  1 38  1  0
  2 39  1  6
  3 40  1  0
  3 41  1  0
  6 42  1  0
  8 43  1  0
 10 44  1  0
 11 45  1  0
 12 46  1  0
 13 47  1  0
 18 48  1  0
 18 49  1  0
 20 50  1  0
 20 51  1  0
 24 52  1  0
 26 53  1  0
 26 54  1  0
 26 55  1  0
 30 56  1  0
 31 57  1  0
 34 58  1  0
M  END
>  <RMSD>  (38) 
0.17085489762833747

$$$$

     RDKit          3D

 66 71  0  0  0  0  0  0  0  0999 V2000
   -6.7620    2.6518  -23.2218 C   0  0  0  0  0  0  0  0  0  0  0  0
   -7.3091    1.4753  -23.8589 N   0  0  0  0  0  0  0  0  0  0  0  0
   -6.8314    1.0648  -25.0525 C   0  0  0  0  0  0  0  0  0  0  0  0
   -6.0136    1.6978  -25.7057 O   0  0  0  0  0  0  0  0  0  0  0  0
   -7.3261   -0.2862  -25.5804 C   0  0  0  0  0  0  0  0  0  0  0  0
   -8.1442   -1.0827  -24.6896 N   0  0  0  0  0  0  0  0  0  0  0  0
   -7.5812   -2.2956  -24.1213 C   0  0  0  0  0  0  0  0  0  0  0  0
   -8.2257   -2.6436  -22.7561 C   0  0  2  0  0  0  0  0  0  0  0  0
   -7.8758   -1.5396  -21.7268 C   0  0  0  0  0  0  0  0  0  0  0  0
   -8.4065   -0.4530  -21.5942 O   0  0  0  0  0  0  0  0  0  0  0  0
   -6.8193   -1.9872  -20.9653 N   0  0  0  0  0  0  0  0  0  0  0  0
   -6.1794   -1.1543  -20.0061 C   0  0  0  0  0  0  0  0  0  0  0  0
   -6.5467   -1.2422  -18.6879 C   0  0  0  0  0  0  0  0  0  0  0  0
   -6.0137   -0.5016  -17.6834 N   0  0  0  0  0  0  0  0  0  0  0  0
   -5.0743    0.3599  -18.0004 C   0  0  0  0  0  0  0  0  0  0  0  0
   -4.5714    0.5405  -19.3227 C   0  0  0  0  0  0  0  0  0  0  0  0
   -3.5532    1.4880  -19.6290 C   0  0  0  0  0  0  0  0  0  0  0  0
   -3.0969    1.6221  -20.9137 C   0  0  0  0  0  0  0  0  0  0  0  0
   -3.6250    0.8178  -21.9515 C   0  0  0  0  0  0  0  0  0  0  0  0
   -4.6193   -0.0908  -21.6832 C   0  0  0  0  0  0  0  0  0  0  0  0
   -5.1280   -0.2478  -20.3629 C   0  0  0  0  0  0  0  0  0  0  0  0
   -6.3435   -3.3052  -21.3528 C   0  0  0  0  0  0  0  0  0  0  0  0
   -7.5625   -3.8855  -22.0897 C   0  0  2  0  0  0  0  0  0  0  0  0
   -7.3449   -5.1395  -22.9780 C   0  0  0  0  0  0  0  0  0  0  0  0
   -5.9557   -5.3542  -23.5366 C   0  0  0  0  0  0  0  0  0  0  0  0
   -4.9452   -5.8392  -22.7009 C   0  0  0  0  0  0  0  0  0  0  0  0
   -3.6472   -6.0151  -23.1636 C   0  0  0  0  0  0  0  0  0  0  0  0
   -3.3307   -5.7139  -24.4832 C   0  0  0  0  0  0  0  0  0  0  0  0
   -4.3284   -5.2479  -25.3327 C   0  0  0  0  0  0  0  0  0  0  0  0
   -5.6280   -5.0737  -24.8628 C   0  0  0  0  0  0  0  0  0  0  0  0
   -9.7214   -2.7153  -22.9792 C   0  0  0  0  0  0  0  0  0  0  0  0
  -10.5483   -3.5911  -22.2654 C   0  0  0  0  0  0  0  0  0  0  0  0
  -11.9233   -3.5115  -22.4010 C   0  0  0  0  0  0  0  0  0  0  0  0
  -12.9237   -4.5739  -21.4497 Cl  0  0  0  0  0  0  0  0  0  0  0  0
  -12.5228   -2.5850  -23.2570 C   0  0  0  0  0  0  0  0  0  0  0  0
  -11.7085   -1.7321  -23.9820 C   0  0  0  0  0  0  0  0  0  0  0  0
  -10.3194   -1.7921  -23.8539 C   0  0  0  0  0  0  0  0  0  0  0  0
   -9.4896   -0.8359  -24.6642 C   0  0  0  0  0  0  0  0  0  0  0  0
   -9.9712    0.1242  -25.2514 O   0  0  0  0  0  0  0  0  0  0  0  0
   -5.6990    2.5101  -22.9997 H   0  0  0  0  0  0  0  0  0  0  0  0
   -7.2917    2.8053  -22.2804 H   0  0  0  0  0  0  0  0  0  0  0  0
   -6.8650    3.5427  -23.8493 H   0  0  0  0  0  0  0  0  0  0  0  0
   -8.1011    1.0183  -23.4273 H   0  0  0  0  0  0  0  0  0  0  0  0
   -6.4308   -0.8616  -25.8339 H   0  0  0  0  0  0  0  0  0  0  0  0
   -7.8627   -0.1090  -26.5192 H   0  0  0  0  0  0  0  0  0  0  0  0
   -7.7271   -3.1346  -24.8147 H   0  0  0  0  0  0  0  0  0  0  0  0
   -6.5064   -2.1464  -23.9926 H   0  0  0  0  0  0  0  0  0  0  0  0
   -7.3284   -1.9372  -18.3911 H   0  0  0  0  0  0  0  0  0  0  0  0
   -4.6572    0.9646  -17.1924 H   0  0  0  0  0  0  0  0  0  0  0  0
   -3.1551    2.1097  -18.8276 H   0  0  0  0  0  0  0  0  0  0  0  0
   -2.3289    2.3532  -21.1553 H   0  0  0  0  0  0  0  0  0  0  0  0
   -3.2735    0.9434  -22.9747 H   0  0  0  0  0  0  0  0  0  0  0  0
   -5.0335   -0.7003  -22.4830 H   0  0  0  0  0  0  0  0  0  0  0  0
   -5.4557   -3.2601  -22.0056 H   0  0  0  0  0  0  0  0  0  0  0  0
   -6.0709   -3.8816  -20.4664 H   0  0  0  0  0  0  0  0  0  0  0  0
   -8.2497   -4.1751  -21.2891 H   0  0  0  0  0  0  0  0  0  0  0  0
   -7.6121   -6.0286  -22.3924 H   0  0  0  0  0  0  0  0  0  0  0  0
   -8.0731   -5.1157  -23.7971 H   0  0  0  0  0  0  0  0  0  0  0  0
   -5.1845   -6.0547  -21.6625 H   0  0  0  0  0  0  0  0  0  0  0  0
   -2.8800   -6.3777  -22.4881 H   0  0  0  0  0  0  0  0  0  0  0  0
   -2.3185   -5.8537  -24.8487 H   0  0  0  0  0  0  0  0  0  0  0  0
   -4.0999   -5.0259  -26.3705 H   0  0  0  0  0  0  0  0  0  0  0  0
   -6.3996   -4.7205  -25.5430 H   0  0  0  0  0  0  0  0  0  0  0  0
  -10.1252   -4.3421  -21.6062 H   0  0  0  0  0  0  0  0  0  0  0  0
  -13.6064   -2.5364  -23.3322 H   0  0  0  0  0  0  0  0  0  0  0  0
  -12.1374   -1.0005  -24.6596 H   0  0  0  0  0  0  0  0  0  0  0  0
  1  2  1  0
  2  3  1  0
  3  4  2  0
  3  5  1  0
  5  6  1  0
  6  7  1  0
  8  7  1  6
  8  9  1  0
  9 10  2  0
  9 11  1  0
 11 12  1  0
 12 13  2  0
 13 14  1  0
 14 15  2  0
 15 16  1  0
 16 17  2  0
 17 18  1  0
 18 19  2  0
 19 20  1  0
 20 21  2  0
 11 22  1  0
 22 23  1  0
 23 24  1  0
 24 25  1  0
 25 26  2  0
 26 27  1  0
 27 28  2  0
 28 29  1  0
 29 30  2  0
  8 31  1  0
 31 32  2  0
 32 33  1  0
 33 34  1  0
 33 35  2  0
 35 36  1  0
 36 37  2  0
 37 38  1  0
 38 39  2  0
 38  6  1  0
 23  8  1  0
 30 25  1  0
 37 31  1  0
 21 12  1  0
 21 16  1  0
  1 40  1  0
  1 41  1  0
  1 42  1  0
  2 43  1  0
  5 44  1  0
  5 45  1  0
  7 46  1  0
  7 47  1  0
 13 48  1  0
 15 49  1  0
 17 50  1  0
 18 51  1  0
 19 52  1  0
 20 53  1  0
 22 54  1  0
 22 55  1  0
 23 56  1  1
 24 57  1  0
 24 58  1  0
 26 59  1  0
 27 60  1  0
 28 61  1  0
 29 62  1  0
 30 63  1  0
 32 64  1  0
 35 65  1  0
 36 66  1  0
M  END
>  <RMSD>  (39) 
0.057881857830002374

$$$$

     RDKit          3D

 50 53  0  0  0  0  0  0  0  0999 V2000
   11.8656   -2.9134   18.4236 C   0  0  0  0  0  0  0  0  0  0  0  0
   10.9481   -2.9700   19.6370 C   0  0  1  0  0  0  0  0  0  0  0  0
   11.5835   -3.7233   20.7996 C   0  0  0  0  0  0  0  0  0  0  0  0
   10.5092   -4.0659   21.8289 C   0  0  0  0  0  0  0  0  0  0  0  0
    9.5092   -2.9322   22.1217 C   0  0  2  0  0  0  0  0  0  0  0  0
    9.1660   -2.9202   23.6275 C   0  0  0  0  0  0  0  0  0  0  0  0
    7.7489   -2.3553   23.7666 C   0  0  0  0  0  0  0  0  0  0  0  0
    7.1873   -2.4670   22.4138 N   0  0  0  0  0  0  0  0  0  0  0  0
    6.2989   -1.4537   22.0771 C   0  0  0  0  0  0  0  0  0  0  0  0
    5.3479   -1.2467   22.8001 O   0  0  0  0  0  0  0  0  0  0  0  0
    6.7255   -0.4587   20.9915 C   0  0  0  0  0  0  0  0  0  0  0  0
    5.8356   -0.1006   19.8364 C   0  0  0  0  0  0  0  0  0  0  0  0
    6.2731   -0.3647   18.5702 C   0  0  0  0  0  0  0  0  0  0  0  0
    5.7131    0.1047   17.4286 N   0  0  0  0  0  0  0  0  0  0  0  0
    4.7070    0.9331   17.5706 C   0  0  0  0  0  0  0  0  0  0  0  0
    4.1739    1.3343   18.8277 C   0  0  0  0  0  0  0  0  0  0  0  0
    3.1816    2.3387   18.9552 C   0  0  0  0  0  0  0  0  0  0  0  0
    2.6884    2.6935   20.1835 C   0  0  0  0  0  0  0  0  0  0  0  0
    3.1289    2.0052   21.3327 C   0  0  0  0  0  0  0  0  0  0  0  0
    4.0915    1.0350   21.2489 C   0  0  0  0  0  0  0  0  0  0  0  0
    4.6920    0.7273   19.9981 C   0  0  0  0  0  0  0  0  0  0  0  0
    8.0999   -3.1508   21.5190 C   0  0  0  0  0  0  0  0  0  0  0  0
   10.0650   -1.5851   21.6212 C   0  0  0  0  0  0  0  0  0  0  0  0
   10.5562   -1.5750   20.1510 C   0  0  0  0  0  0  0  0  0  0  0  0
   12.1034   -3.9279   18.0856 H   0  0  0  0  0  0  0  0  0  0  0  0
   11.3963   -2.3745   17.5943 H   0  0  0  0  0  0  0  0  0  0  0  0
   12.8118   -2.4094   18.6610 H   0  0  0  0  0  0  0  0  0  0  0  0
   10.0264   -3.5017   19.3424 H   0  0  0  0  0  0  0  0  0  0  0  0
   12.3524   -3.0925   21.2663 H   0  0  0  0  0  0  0  0  0  0  0  0
   12.0949   -4.6283   20.4493 H   0  0  0  0  0  0  0  0  0  0  0  0
    9.9285   -4.8993   21.4425 H   0  0  0  0  0  0  0  0  0  0  0  0
   10.9810   -4.3997   22.7570 H   0  0  0  0  0  0  0  0  0  0  0  0
    9.9103   -2.3514   24.1930 H   0  0  0  0  0  0  0  0  0  0  0  0
    9.1773   -3.9556   23.9883 H   0  0  0  0  0  0  0  0  0  0  0  0
    7.7611   -1.3029   24.0846 H   0  0  0  0  0  0  0  0  0  0  0  0
    7.1375   -2.9047   24.4894 H   0  0  0  0  0  0  0  0  0  0  0  0
    6.8951    0.4734   21.5506 H   0  0  0  0  0  0  0  0  0  0  0  0
    7.6890   -0.7545   20.5732 H   0  0  0  0  0  0  0  0  0  0  0  0
    7.1648   -0.9815   18.4464 H   0  0  0  0  0  0  0  0  0  0  0  0
    4.2612    1.3434   16.6649 H   0  0  0  0  0  0  0  0  0  0  0  0
    2.8244    2.8423   18.0645 H   0  0  0  0  0  0  0  0  0  0  0  0
    1.9472    3.4839   20.2757 H   0  0  0  0  0  0  0  0  0  0  0  0
    2.7040    2.2598   22.2973 H   0  0  0  0  0  0  0  0  0  0  0  0
    4.3970    0.4750   22.1274 H   0  0  0  0  0  0  0  0  0  0  0  0
    7.9925   -2.7964   20.4906 H   0  0  0  0  0  0  0  0  0  0  0  0
    7.8605   -4.2224   21.5089 H   0  0  0  0  0  0  0  0  0  0  0  0
   10.8985   -1.3084   22.2778 H   0  0  0  0  0  0  0  0  0  0  0  0
    9.2949   -0.8236   21.7580 H   0  0  0  0  0  0  0  0  0  0  0  0
   11.4366   -0.9148   20.0967 H   0  0  0  0  0  0  0  0  0  0  0  0
    9.8128   -1.1355   19.4719 H   0  0  0  0  0  0  0  0  0  0  0  0
  1  2  1  0
  2  3  1  0
  3  4  1  0
  5  4  1  1
  5  6  1  0
  6  7  1  0
  7  8  1  0
  8  9  1  0
  9 10  2  0
  9 11  1  0
 11 12  1  0
 12 13  2  0
 13 14  1  0
 14 15  2  0
 15 16  1  0
 16 17  2  0
 17 18  1  0
 18 19  2  0
 19 20  1  0
 20 21  2  0
  8 22  1  0
  5 23  1  0
 23 24  1  0
 24  2  1  0
 22  5  1  0
 21 12  1  0
 21 16  1  0
  1 25  1  0
  1 26  1  0
  1 27  1  0
  2 28  1  6
  3 29  1  0
  3 30  1  0
  4 31  1  0
  4 32  1  0
  6 33  1  0
  6 34  1  0
  7 35  1  0
  7 36  1  0
 11 37  1  0
 11 38  1  0
 13 39  1  0
 15 40  1  0
 17 41  1  0
 18 42  1  0
 19 43  1  0
 20 44  1  0
 22 45  1  0
 22 46  1  0
 23 47  1  0
 23 48  1  0
 24 49  1  0
 24 50  1  0
M  END
>  <RMSD>  (40) 
0.1323709198375078

$$$$

     RDKit          3D

 67 71  0  0  0  0  0  0  0  0999 V2000
    5.6100    4.0448   25.1214 O   0  0  0  0  0  0  0  0  0  0  0  0
    6.0245    3.0863   24.5046 C   0  0  0  0  0  0  0  0  0  0  0  0
    6.6422    1.8570   25.2047 C   0  0  0  0  0  0  0  0  0  0  0  0
    7.5767    1.1233   24.2922 N   0  0  1  0  0  0  0  0  0  0  0  0
    9.0353    1.3369   24.6019 C   0  0  0  0  0  0  0  0  0  0  0  0
    9.9625    0.4137   23.8474 C   0  0  0  0  0  0  0  0  0  0  0  0
   11.3350    0.6610   23.8950 C   0  0  0  0  0  0  0  0  0  0  0  0
   12.2428   -0.1963   23.2869 C   0  0  0  0  0  0  0  0  0  0  0  0
   11.7589   -1.3171   22.6159 C   0  0  0  0  0  0  0  0  0  0  0  0
   12.8733   -2.4459   21.8926 Cl  0  0  0  0  0  0  0  0  0  0  0  0
   10.3941   -1.5459   22.5127 C   0  0  0  0  0  0  0  0  0  0  0  0
    9.4884   -0.6694   23.1084 C   0  0  0  0  0  0  0  0  0  0  0  0
    8.0080   -0.8571   22.8808 C   0  0  2  0  0  0  0  0  0  0  0  0
    7.5393   -0.1354   21.6079 C   0  0  0  0  0  0  0  0  0  0  0  0
    8.0033    0.9254   21.2283 O   0  0  0  0  0  0  0  0  0  0  0  0
    6.4701   -0.7215   20.9650 N   0  0  0  0  0  0  0  0  0  0  0  0
    5.8374   -0.1136   19.8409 C   0  0  0  0  0  0  0  0  0  0  0  0
    6.2566   -0.4071   18.5699 C   0  0  0  0  0  0  0  0  0  0  0  0
    5.7281    0.1260   17.4411 N   0  0  0  0  0  0  0  0  0  0  0  0
    4.7564    0.9986   17.5759 C   0  0  0  0  0  0  0  0  0  0  0  0
    4.2079    1.3869   18.8344 C   0  0  0  0  0  0  0  0  0  0  0  0
    3.1588    2.3408   18.9525 C   0  0  0  0  0  0  0  0  0  0  0  0
    2.6352    2.6513   20.1818 C   0  0  0  0  0  0  0  0  0  0  0  0
    3.1159    2.0023   21.3405 C   0  0  0  0  0  0  0  0  0  0  0  0
    4.1179    1.0634   21.2425 C   0  0  0  0  0  0  0  0  0  0  0  0
    4.7292    0.7754   19.9963 C   0  0  0  0  0  0  0  0  0  0  0  0
    7.2185   -0.3192   24.0753 C   0  0  0  0  0  0  0  0  0  0  0  0
    6.0645    2.9942   23.1313 N   0  0  0  0  0  0  0  0  0  0  0  0
    6.5268    4.0485   22.2457 C   0  0  0  0  0  0  0  0  0  0  0  0
    7.9181    4.5993   22.6375 C   0  0  0  0  0  0  0  0  0  0  0  0
    7.8885    5.5767   23.7944 C   0  0  0  0  0  0  0  0  0  0  0  0
    8.4761    5.3150   25.0367 C   0  0  0  0  0  0  0  0  0  0  0  0
    8.3930    6.2525   26.0639 C   0  0  0  0  0  0  0  0  0  0  0  0
    7.7368    7.4645   25.8732 C   0  0  0  0  0  0  0  0  0  0  0  0
    7.6716    8.4814   26.9702 C   0  0  0  0  0  0  0  0  0  0  0  0
    6.3737    8.8114   27.2377 F   0  0  0  0  0  0  0  0  0  0  0  0
    8.2941    9.6335   26.5815 F   0  0  0  0  0  0  0  0  0  0  0  0
    7.1525    7.7317   24.6383 C   0  0  0  0  0  0  0  0  0  0  0  0
    7.2240    6.7914   23.6203 C   0  0  0  0  0  0  0  0  0  0  0  0
    5.8673    1.1781   25.5685 H   0  0  0  0  0  0  0  0  0  0  0  0
    7.1847    2.2112   26.0812 H   0  0  0  0  0  0  0  0  0  0  0  0
    7.4660    1.5927   23.3734 H   0  0  0  0  0  0  0  0  0  0  0  0
    9.2979    2.3721   24.3531 H   0  0  0  0  0  0  0  0  0  0  0  0
    9.2052    1.2579   25.6782 H   0  0  0  0  0  0  0  0  0  0  0  0
   11.6997    1.5442   24.4174 H   0  0  0  0  0  0  0  0  0  0  0  0
   13.3131   -0.0167   23.3440 H   0  0  0  0  0  0  0  0  0  0  0  0
   10.0202   -2.4092   21.9692 H   0  0  0  0  0  0  0  0  0  0  0  0
    7.7827   -1.9180   22.7382 H   0  0  0  0  0  0  0  0  0  0  0  0
    5.9985   -1.5084   21.3899 H   0  0  0  0  0  0  0  0  0  0  0  0
    7.0472   -1.1414   18.4314 H   0  0  0  0  0  0  0  0  0  0  0  0
    4.3552    1.4278   16.6568 H   0  0  0  0  0  0  0  0  0  0  0  0
    2.7914    2.8079   18.0424 H   0  0  0  0  0  0  0  0  0  0  0  0
    1.8473    3.3959   20.2733 H   0  0  0  0  0  0  0  0  0  0  0  0
    2.7264    2.2662   22.3213 H   0  0  0  0  0  0  0  0  0  0  0  0
    4.4730    0.5490   22.1272 H   0  0  0  0  0  0  0  0  0  0  0  0
    6.1442   -0.3931   23.8936 H   0  0  0  0  0  0  0  0  0  0  0  0
    7.4360   -0.8785   24.9854 H   0  0  0  0  0  0  0  0  0  0  0  0
    5.8957    2.1175   22.6735 H   0  0  0  0  0  0  0  0  0  0  0  0
    5.7618    4.8265   22.2195 H   0  0  0  0  0  0  0  0  0  0  0  0
    6.5869    3.5838   21.2575 H   0  0  0  0  0  0  0  0  0  0  0  0
    8.3617    5.0871   21.7574 H   0  0  0  0  0  0  0  0  0  0  0  0
    8.5709    3.7483   22.8769 H   0  0  0  0  0  0  0  0  0  0  0  0
    8.9665    4.3584   25.2242 H   0  0  0  0  0  0  0  0  0  0  0  0
    8.8411    6.0440   27.0341 H   0  0  0  0  0  0  0  0  0  0  0  0
    8.1385    8.1326   27.8994 H   0  0  0  0  0  0  0  0  0  0  0  0
    6.6496    8.6794   24.4750 H   0  0  0  0  0  0  0  0  0  0  0  0
    6.7582    7.0006   22.6587 H   0  0  0  0  0  0  0  0  0  0  0  0
  1  2  2  0
  2  3  1  0
  3  4  1  0
  4  5  1  0
  5  6  1  0
  6  7  2  0
  7  8  1  0
  8  9  2  0
  9 10  1  0
  9 11  1  0
 11 12  2  0
 12 13  1  0
 13 14  1  0
 14 15  2  0
 14 16  1  0
 16 17  1  0
 17 18  2  0
 18 19  1  0
 19 20  2  0
 20 21  1  0
 21 22  2  0
 22 23  1  0
 23 24  2  0
 24 25  1  0
 25 26  2  0
 13 27  1  0
  2 28  1  0
 28 29  1  0
 29 30  1  0
 30 31  1  0
 31 32  2  0
 32 33  1  0
 33 34  2  0
 34 35  1  0
 35 36  1  0
 35 37  1  0
 34 38  1  0
 38 39  2  0
 27  4  1  0
 39 31  1  0
 12  6  1  0
 26 17  1  0
 26 21  1  0
  3 40  1  0
  3 41  1  0
  4 42  1  6
  5 43  1  0
  5 44  1  0
  7 45  1  0
  8 46  1  0
 11 47  1  0
 13 48  1  6
 16 49  1  0
 18 50  1  0
 20 51  1  0
 22 52  1  0
 23 53  1  0
 24 54  1  0
 25 55  1  0
 27 56  1  0
 27 57  1  0
 28 58  1  0
 29 59  1  0
 29 60  1  0
 30 61  1  0
 30 62  1  0
 32 63  1  0
 33 64  1  0
 35 65  1  0
 38 66  1  0
 39 67  1  0
M  CHG  1   4   1
M  END
>  <RMSD>  (41) 
0.059353400011087236

$$$$

     RDKit          3D

 37 41  0  0  0  0  0  0  0  0999 V2000
    6.8592   -1.5115   23.1420 N   0  0  0  0  0  0  0  0  0  0  0  0
    6.0367   -0.5703   22.4813 C   0  0  0  0  0  0  0  0  0  0  0  0
    4.7863   -0.6458   22.5518 O   0  0  0  0  0  0  0  0  0  0  0  0
   10.7606   -3.8321   25.5997 C   0  0  0  0  0  0  0  0  0  0  0  0
    9.7374   -4.4733   25.2926 O   0  0  0  0  0  0  0  0  0  0  0  0
   11.2257   -2.6372   24.9905 N   0  0  0  0  0  0  0  0  0  0  0  0
   12.4631   -1.9904   25.3627 C   0  0  0  0  0  0  0  0  0  0  0  0
   13.0664   -1.1765   24.2956 C   0  0  0  0  0  0  0  0  0  0  0  0
   12.6021   -1.4535   22.8974 C   0  0  0  0  0  0  0  0  0  0  0  0
   11.1031   -1.4443   22.8687 C   0  0  0  0  0  0  0  0  0  0  0  0
   10.3411   -0.8837   21.8915 C   0  0  0  0  0  0  0  0  0  0  0  0
    8.9490   -0.9211   21.9910 C   0  0  0  0  0  0  0  0  0  0  0  0
    8.2898   -1.5139   23.0594 C   0  0  0  0  0  0  0  0  0  0  0  0
    9.0739   -2.0806   24.0438 C   0  0  0  0  0  0  0  0  0  0  0  0
   10.4456   -2.0472   23.9528 C   0  0  0  0  0  0  0  0  0  0  0  0
   10.7551   -4.5461   27.9819 C   0  0  0  0  0  0  0  0  0  0  0  0
   11.5684   -4.3816   26.7200 C   0  0  0  0  0  0  0  0  0  0  0  0
    6.1951   -2.4633   23.9461 N   0  0  0  0  0  0  0  0  0  0  0  0
    5.8282   -1.9590   25.2788 C   0  0  0  0  0  0  0  0  0  0  0  0
    5.9011   -3.7745   23.5820 C   0  0  0  0  0  0  0  0  0  0  0  0
    5.8276   -4.2572   22.3040 C   0  0  0  0  0  0  0  0  0  0  0  0
    5.5576   -5.5962   22.0266 C   0  0  0  0  0  0  0  0  0  0  0  0
    5.3528   -6.4886   23.0555 C   0  0  0  0  0  0  0  0  0  0  0  0
    5.4198   -6.0285   24.3635 C   0  0  0  0  0  0  0  0  0  0  0  0
    5.1571   -7.1740   25.6586 Cl  0  0  0  0  0  0  0  0  0  0  0  0
    5.6886   -4.7005   24.6043 C   0  0  0  0  0  0  0  0  0  0  0  0
    6.6623    0.5174   21.7005 C   0  0  0  0  0  0  0  0  0  0  0  0
    6.1187    0.5709   20.3145 C   0  0  0  0  0  0  0  0  0  0  0  0
    6.6811   -0.1357   19.2534 C   0  0  0  0  0  0  0  0  0  0  0  0
    6.1491   -0.0435   18.0224 N   0  0  0  0  0  0  0  0  0  0  0  0
    5.0767    0.7079   17.7323 C   0  0  0  0  0  0  0  0  0  0  0  0
    4.5052    1.4177   18.7789 C   0  0  0  0  0  0  0  0  0  0  0  0
    3.4016    2.2008   18.5276 C   0  0  0  0  0  0  0  0  0  0  0  0
    2.8059    2.9169   19.5376 C   0  0  0  0  0  0  0  0  0  0  0  0
    3.3020    2.8672   20.8311 C   0  0  0  0  0  0  0  0  0  0  0  0
    4.4182    2.0672   21.0542 C   0  0  0  0  0  0  0  0  0  0  0  0
    5.0248    1.3459   20.0566 C   0  0  0  0  0  0  0  0  0  0  0  0
 16 17  1  0
 17  4  1  0
  4  5  2  0
  4  6  1  0
  6  7  1  0
  7  8  1  0
  8  9  1  0
  9 10  1  0
 10 11  2  0
 11 12  1  0
 12 13  2  0
 13  1  1  0
  1  2  1  0
  2  3  2  0
  2 27  1  0
 27 28  1  0
 28 29  2  0
 29 30  1  0
 30 31  2  0
 31 32  1  0
 32 33  2  0
 33 34  1  0
 34 35  2  0
 35 36  1  0
 36 37  2  0
  1 18  1  0
 18 19  1  0
 18 20  1  0
 20 21  2  0
 21 22  1  0
 22 23  2  0
 23 24  1  0
 24 25  1  0
 24 26  2  0
 13 14  1  0
 14 15  2  0
 15  6  1  0
 15 10  1  0
 37 28  1  0
 26 20  1  0
 37 32  1  0
M  END
>  <minimizedAffinity>  (42) 
-9.41409

>  <CNNscore>  (42) 
0.8059092760

>  <CNNaffinity>  (42) 
7.5810880661

>  <CNN_VS>  (42) 
6.1096692085

>  <CNNaffinity_variance>  (42) 
0.0664252117

$$$$

     RDKit          3D

 59 64  0  0  0  0  0  0  0  0999 V2000
    7.0676   -3.2869   23.5056 C   0  0  0  0  0  0  0  0  0  0  0  0
    7.3568   -2.2833   22.3967 C   0  0  1  0  0  0  0  0  0  0  0  0
    6.1402   -1.9278   21.5307 C   0  0  0  0  0  0  0  0  0  0  0  0
    6.5356   -0.6633   20.9383 N   0  0  0  0  0  0  0  0  0  0  0  0
    5.8854   -0.0567   19.8301 C   0  0  0  0  0  0  0  0  0  0  0  0
    6.3045   -0.3465   18.5581 C   0  0  0  0  0  0  0  0  0  0  0  0
    5.7627    0.1732   17.4267 N   0  0  0  0  0  0  0  0  0  0  0  0
    4.7614    1.0115   17.5697 C   0  0  0  0  0  0  0  0  0  0  0  0
    4.2022    1.3835   18.8261 C   0  0  0  0  0  0  0  0  0  0  0  0
    3.1180    2.2997   18.9409 C   0  0  0  0  0  0  0  0  0  0  0  0
    2.6084    2.6205   20.1686 C   0  0  0  0  0  0  0  0  0  0  0  0
    3.1444    2.0344   21.3385 C   0  0  0  0  0  0  0  0  0  0  0  0
    4.2072    1.1693   21.2614 C   0  0  0  0  0  0  0  0  0  0  0  0
    4.7690    0.8251   20.0021 C   0  0  0  0  0  0  0  0  0  0  0  0
    7.5475   -0.0282   21.6258 C   0  0  0  0  0  0  0  0  0  0  0  0
    8.0204    1.0421   21.3097 O   0  0  0  0  0  0  0  0  0  0  0  0
    7.9295   -0.9090   22.8420 C   0  0  1  0  0  0  0  0  0  0  0  0
    7.2205   -0.3799   24.1168 C   0  0  0  0  0  0  0  0  0  0  0  0
    7.7040    0.9283   24.5132 N   0  0  0  0  0  0  0  0  0  0  0  0
    6.7774    1.8198   25.1880 C   0  0  0  0  0  0  0  0  0  0  0  0
    6.0926    2.7935   24.2718 C   0  0  0  0  0  0  0  0  0  0  0  0
    4.7942    3.3202   24.3877 C   0  0  0  0  0  0  0  0  0  0  0  0
    4.5238    4.1894   23.4159 N   0  0  0  0  0  0  0  0  0  0  0  0
    5.6420    4.2255   22.6807 N   0  0  0  0  0  0  0  0  0  0  0  0
    5.7013    4.9744   21.4538 C   0  0  0  0  0  0  0  0  0  0  0  0
    6.6034    3.4009   23.1516 C   0  0  0  0  0  0  0  0  0  0  0  0
    9.0208    1.2827   24.4314 C   0  0  0  0  0  0  0  0  0  0  0  0
    9.4280    2.3599   24.8418 O   0  0  0  0  0  0  0  0  0  0  0  0
    9.9311    0.2552   23.8162 C   0  0  0  0  0  0  0  0  0  0  0  0
   11.3082    0.4266   23.9674 C   0  0  0  0  0  0  0  0  0  0  0  0
   12.1986   -0.4820   23.4287 C   0  0  0  0  0  0  0  0  0  0  0  0
   11.6728   -1.5743   22.7435 C   0  0  0  0  0  0  0  0  0  0  0  0
   12.5213   -2.4644   22.2009 F   0  0  0  0  0  0  0  0  0  0  0  0
   10.3172   -1.7751   22.5780 C   0  0  0  0  0  0  0  0  0  0  0  0
    9.4168   -0.8449   23.1085 C   0  0  0  0  0  0  0  0  0  0  0  0
    6.7852   -4.2643   23.1006 H   0  0  0  0  0  0  0  0  0  0  0  0
    6.2473   -2.9446   24.1446 H   0  0  0  0  0  0  0  0  0  0  0  0
    7.9385   -3.4327   24.1535 H   0  0  0  0  0  0  0  0  0  0  0  0
    8.0822   -2.7321   21.7138 H   0  0  0  0  0  0  0  0  0  0  0  0
    5.2309   -1.8495   22.1533 H   0  0  0  0  0  0  0  0  0  0  0  0
    5.9427   -2.6701   20.7530 H   0  0  0  0  0  0  0  0  0  0  0  0
    7.1380   -1.0294   18.4068 H   0  0  0  0  0  0  0  0  0  0  0  0
    4.3338    1.4401   16.6609 H   0  0  0  0  0  0  0  0  0  0  0  0
    2.7100    2.7456   18.0355 H   0  0  0  0  0  0  0  0  0  0  0  0
    1.7865    3.3290   20.2568 H   0  0  0  0  0  0  0  0  0  0  0  0
    2.7390    2.3026   22.3095 H   0  0  0  0  0  0  0  0  0  0  0  0
    4.6307    0.7292   22.1612 H   0  0  0  0  0  0  0  0  0  0  0  0
    6.1433   -0.3033   23.9342 H   0  0  0  0  0  0  0  0  0  0  0  0
    7.3773   -1.0825   24.9476 H   0  0  0  0  0  0  0  0  0  0  0  0
    6.0258    1.2054   25.6999 H   0  0  0  0  0  0  0  0  0  0  0  0
    7.3385    2.3525   25.9631 H   0  0  0  0  0  0  0  0  0  0  0  0
    4.0531    3.0793   25.1413 H   0  0  0  0  0  0  0  0  0  0  0  0
    4.9811    5.7877   21.5008 H   0  0  0  0  0  0  0  0  0  0  0  0
    6.7050    5.3847   21.3395 H   0  0  0  0  0  0  0  0  0  0  0  0
    5.4788    4.3460   20.5854 H   0  0  0  0  0  0  0  0  0  0  0  0
    7.5703    3.3054   22.6629 H   0  0  0  0  0  0  0  0  0  0  0  0
   11.6680    1.2883   24.5178 H   0  0  0  0  0  0  0  0  0  0  0  0
   13.2761   -0.3619   23.5132 H   0  0  0  0  0  0  0  0  0  0  0  0
    9.9850   -2.6568   22.0378 H   0  0  0  0  0  0  0  0  0  0  0  0
  1  2  1  0
  2  3  1  0
  3  4  1  0
  4  5  1  0
  5  6  2  0
  6  7  1  0
  7  8  2  0
  8  9  1  0
  9 10  2  0
 10 11  1  0
 11 12  2  0
 12 13  1  0
 13 14  2  0
  4 15  1  0
 15 16  2  0
 15 17  1  0
 17 18  1  1
 18 19  1  0
 19 20  1  0
 20 21  1  0
 21 22  1  0
 22 23  2  0
 23 24  1  0
 24 25  1  0
 24 26  1  0
 19 27  1  0
 27 28  2  0
 27 29  1  0
 29 30  2  0
 30 31  1  0
 31 32  2  0
 32 33  1  0
 32 34  1  0
 34 35  2  0
 17  2  1  0
 26 21  2  0
 35 29  1  0
 14  5  1  0
 35 17  1  0
 14  9  1  0
  1 36  1  0
  1 37  1  0
  1 38  1  0
  2 39  1  6
  3 40  1  0
  3 41  1  0
  6 42  1  0
  8 43  1  0
 10 44  1  0
 11 45  1  0
 12 46  1  0
 13 47  1  0
 18 48  1  0
 18 49  1  0
 20 50  1  0
 20 51  1  0
 22 52  1  0
 25 53  1  0
 25 54  1  0
 25 55  1  0
 26 56  1  0
 30 57  1  0
 31 58  1  0
 34 59  1  0
M  END
>  <RMSD>  (43) 
0.17184980950560094

$$$$

     RDKit          3D

 24 27  0  0  0  0  0  0  0  0999 V2000
    5.3542   -1.8938   22.1519 O   0  0  0  0  0  0  0  0  0  0  0  0
    6.5089   -1.5108   22.0450 C   0  0  0  0  0  0  0  0  0  0  0  0
    6.8944   -0.3808   21.0808 C   0  0  0  0  0  0  0  0  0  0  0  0
    5.8806   -0.1827   19.9819 C   0  0  0  0  0  0  0  0  0  0  0  0
    6.0507   -0.8050   18.7712 C   0  0  0  0  0  0  0  0  0  0  0  0
    5.2447   -0.6591   17.6883 N   0  0  0  0  0  0  0  0  0  0  0  0
    4.1844    0.0984   17.8359 C   0  0  0  0  0  0  0  0  0  0  0  0
    3.8315    0.7483   19.0490 C   0  0  0  0  0  0  0  0  0  0  0  0
    2.6521    1.5289   19.1677 C   0  0  0  0  0  0  0  0  0  0  0  0
    2.3328    2.1302   20.3528 C   0  0  0  0  0  0  0  0  0  0  0  0
    3.1984    2.0033   21.4616 C   0  0  0  0  0  0  0  0  0  0  0  0
    4.3531    1.2647   21.3671 C   0  0  0  0  0  0  0  0  0  0  0  0
    4.7001    0.6077   20.1555 C   0  0  0  0  0  0  0  0  0  0  0  0
    7.5078   -2.1050   22.7585 N   0  0  0  0  0  0  0  0  0  0  0  0
    8.8494   -1.5504   22.8762 C   0  0  0  0  0  0  0  0  0  0  0  0
    9.4847   -1.9710   24.1979 C   0  0  0  0  0  0  0  0  0  0  0  0
    9.4416   -3.4707   24.3493 C   0  0  0  0  0  0  0  0  0  0  0  0
   10.4504   -4.1919   24.9818 C   0  0  0  0  0  0  0  0  0  0  0  0
   11.9040   -3.3912   25.5235 Cl  0  0  0  0  0  0  0  0  0  0  0  0
   10.3660   -5.5594   25.1863 C   0  0  0  0  0  0  0  0  0  0  0  0
    9.2655   -6.2512   24.6853 C   0  0  0  0  0  0  0  0  0  0  0  0
    8.2372   -5.5519   24.0571 C   0  0  0  0  0  0  0  0  0  0  0  0
    8.3122   -4.1657   23.9073 C   0  0  0  0  0  0  0  0  0  0  0  0
    7.1386   -3.3843   23.3614 C   0  0  0  0  0  0  0  0  0  0  0  0
  1  2  2  0
  2  3  1  0
  3  4  1  0
  4  5  2  0
  5  6  1  0
  6  7  2  0
  7  8  1  0
  8  9  2  0
  9 10  1  0
 10 11  2  0
 11 12  1  0
 12 13  2  0
  2 14  1  0
 14 15  1  0
 15 16  1  0
 16 17  1  0
 17 18  2  0
 18 19  1  0
 18 20  1  0
 20 21  2  0
 21 22  1  0
 22 23  2  0
 23 24  1  0
 13  4  1  0
 24 14  1  0
 13  8  1  0
 23 17  1  0
M  END
>  <cnnaffinities>  (44) 
[5.48691, 5.32706, 5.79713, 5.62633, 5.31709]

>  <score>  (44) 
5.48691

>  <index>  (44) 
22

>  <Smiles>  (44) 
O=C(C(c1c(nc(c2c(c(c(c(c12)[H])[H])[H])[H])[H])[H])([H])[H])N1C(C(c2c(Cl)c(c(c(c2C1([H])[H])[H])[H])[H])([H])[H])([H])[H]

>  <h>  (44) 
<NA>

>  <Training>  (44) 
True

>  <Success>  (44) 
True

>  <enamine_searched>  (44) 
False

>  <enamine_id>  (44) 
nan

$$$$

     RDKit          3D

 69 74  0  0  0  0  0  0  0  0999 V2000
    4.3783    6.7119   20.8845 C   0  0  0  0  0  0  0  0  0  0  0  0
    4.8727    6.0586   22.1488 C   0  0  1  0  0  0  0  0  0  0  0  0
    5.7393    4.8255   21.9158 C   0  0  0  0  0  0  0  0  0  0  0  0
    6.1602    4.2578   23.2455 N   0  0  1  0  0  0  0  0  0  0  0  0
    6.9998    3.0318   23.1309 C   0  0  0  0  0  0  0  0  0  0  0  0
    7.0556    2.2665   24.4649 C   0  0  0  0  0  0  0  0  0  0  0  0
    7.8261    1.0416   24.3495 N   0  0  0  0  0  0  0  0  0  0  0  0
    7.2133   -0.2088   23.9307 C   0  0  0  0  0  0  0  0  0  0  0  0
    7.9758   -0.8669   22.7399 C   0  0  2  0  0  0  0  0  0  0  0  0
    7.6547   -0.1289   21.4201 C   0  0  0  0  0  0  0  0  0  0  0  0
    8.2667    0.7807   20.8940 O   0  0  0  0  0  0  0  0  0  0  0  0
    6.5019   -0.6893   20.9136 N   0  0  0  0  0  0  0  0  0  0  0  0
    5.8503   -0.0960   19.8093 C   0  0  0  0  0  0  0  0  0  0  0  0
    6.3149   -0.3386   18.5403 C   0  0  0  0  0  0  0  0  0  0  0  0
    5.7824    0.1963   17.4155 N   0  0  0  0  0  0  0  0  0  0  0  0
    4.7653    1.0140   17.5745 C   0  0  0  0  0  0  0  0  0  0  0  0
    4.2039    1.3718   18.8345 C   0  0  0  0  0  0  0  0  0  0  0  0
    3.1229    2.2887   18.9413 C   0  0  0  0  0  0  0  0  0  0  0  0
    2.6185    2.6212   20.1709 C   0  0  0  0  0  0  0  0  0  0  0  0
    3.1589    2.0576   21.3464 C   0  0  0  0  0  0  0  0  0  0  0  0
    4.2080    1.1703   21.2698 C   0  0  0  0  0  0  0  0  0  0  0  0
    4.7538    0.7978   20.0043 C   0  0  0  0  0  0  0  0  0  0  0  0
    6.1235   -1.9374   21.5578 C   0  0  0  0  0  0  0  0  0  0  0  0
    7.3807   -2.2648   22.3739 C   0  0  2  0  0  0  0  0  0  0  0  0
    7.1683   -3.2598   23.5019 C   0  0  0  0  0  0  0  0  0  0  0  0
    9.4557   -0.8244   23.0342 C   0  0  0  0  0  0  0  0  0  0  0  0
   10.3388   -1.5758   22.2508 C   0  0  0  0  0  0  0  0  0  0  0  0
   11.6994   -1.4879   22.4698 C   0  0  0  0  0  0  0  0  0  0  0  0
   12.7639   -2.3981   21.4436 Cl  0  0  0  0  0  0  0  0  0  0  0  0
   12.2296   -0.7029   23.4906 C   0  0  0  0  0  0  0  0  0  0  0  0
   11.3647    0.0541   24.2542 C   0  0  0  0  0  0  0  0  0  0  0  0
    9.9962    0.0413   23.9958 C   0  0  0  0  0  0  0  0  0  0  0  0
    9.1507    1.0656   24.6943 C   0  0  0  0  0  0  0  0  0  0  0  0
    9.6333    1.8947   25.4539 O   0  0  0  0  0  0  0  0  0  0  0  0
    6.8240    5.3379   24.0706 C   0  0  0  0  0  0  0  0  0  0  0  0
    5.9395    6.5724   24.1446 C   0  0  0  0  0  0  0  0  0  0  0  0
    5.6190    7.0388   22.8561 O   0  0  0  0  0  0  0  0  0  0  0  0
    3.6582    6.0779   20.3544 H   0  0  0  0  0  0  0  0  0  0  0  0
    3.8863    7.6563   21.1254 H   0  0  0  0  0  0  0  0  0  0  0  0
    5.2322    6.9284   20.2358 H   0  0  0  0  0  0  0  0  0  0  0  0
    4.0181    5.7473   22.7682 H   0  0  0  0  0  0  0  0  0  0  0  0
    5.2093    4.0512   21.3476 H   0  0  0  0  0  0  0  0  0  0  0  0
    6.6330    5.1154   21.3522 H   0  0  0  0  0  0  0  0  0  0  0  0
    5.2877    3.9603   23.7303 H   0  0  0  0  0  0  0  0  0  0  0  0
    8.0044    3.3226   22.7941 H   0  0  0  0  0  0  0  0  0  0  0  0
    6.5708    2.4033   22.3409 H   0  0  0  0  0  0  0  0  0  0  0  0
    6.0323    2.0162   24.7762 H   0  0  0  0  0  0  0  0  0  0  0  0
    7.5133    2.8722   25.2565 H   0  0  0  0  0  0  0  0  0  0  0  0
    6.1666   -0.0124   23.6711 H   0  0  0  0  0  0  0  0  0  0  0  0
    7.2189   -0.9114   24.7782 H   0  0  0  0  0  0  0  0  0  0  0  0
    7.1727   -0.9948   18.4092 H   0  0  0  0  0  0  0  0  0  0  0  0
    4.3256    1.4458   16.6765 H   0  0  0  0  0  0  0  0  0  0  0  0
    2.7068    2.7133   18.0318 H   0  0  0  0  0  0  0  0  0  0  0  0
    1.7909    3.3198   20.2483 H   0  0  0  0  0  0  0  0  0  0  0  0
    2.7450    2.3290   22.3154 H   0  0  0  0  0  0  0  0  0  0  0  0
    4.6148    0.7608   22.1897 H   0  0  0  0  0  0  0  0  0  0  0  0
    5.2340   -1.8300   22.2006 H   0  0  0  0  0  0  0  0  0  0  0  0
    5.9101   -2.7162   20.8173 H   0  0  0  0  0  0  0  0  0  0  0  0
    8.0697   -2.7234   21.6563 H   0  0  0  0  0  0  0  0  0  0  0  0
    8.0868   -3.3941   24.0830 H   0  0  0  0  0  0  0  0  0  0  0  0
    6.8782   -4.2321   23.0878 H   0  0  0  0  0  0  0  0  0  0  0  0
    6.3751   -2.9306   24.1820 H   0  0  0  0  0  0  0  0  0  0  0  0
    9.9837   -2.2078   21.4446 H   0  0  0  0  0  0  0  0  0  0  0  0
   13.3016   -0.6492   23.6408 H   0  0  0  0  0  0  0  0  0  0  0  0
   11.7315    0.7036   25.0400 H   0  0  0  0  0  0  0  0  0  0  0  0
    7.0134    4.9573   25.0745 H   0  0  0  0  0  0  0  0  0  0  0  0
    7.7826    5.5998   23.6043 H   0  0  0  0  0  0  0  0  0  0  0  0
    5.0057    6.3445   24.6892 H   0  0  0  0  0  0  0  0  0  0  0  0
    6.4602    7.3766   24.6735 H   0  0  0  0  0  0  0  0  0  0  0  0
  1  2  1  0
  2  3  1  0
  3  4  1  0
  4  5  1  0
  5  6  1  0
  6  7  1  0
  7  8  1  0
  9  8  1  1
  9 10  1  0
 10 11  2  0
 10 12  1  0
 12 13  1  0
 13 14  2  0
 14 15  1  0
 15 16  2  0
 16 17  1  0
 17 18  2  0
 18 19  1  0
 19 20  2  0
 20 21  1  0
 21 22  2  0
 12 23  1  0
 23 24  1  0
 24 25  1  0
  9 26  1  0
 26 27  2  0
 27 28  1  0
 28 29  1  0
 28 30  2  0
 30 31  1  0
 31 32  2  0
 32 33  1  0
 33 34  2  0
  4 35  1  0
 35 36  1  0
 36 37  1  0
 37  2  1  0
 33  7  1  0
 24  9  1  0
 32 26  1  0
 22 13  1  0
 22 17  1  0
  1 38  1  0
  1 39  1  0
  1 40  1  0
  2 41  1  1
  3 42  1  0
  3 43  1  0
  4 44  1  1
  5 45  1  0
  5 46  1  0
  6 47  1  0
  6 48  1  0
  8 49  1  0
  8 50  1  0
 14 51  1  0
 16 52  1  0
 18 53  1  0
 19 54  1  0
 20 55  1  0
 21 56  1  0
 23 57  1  0
 23 58  1  0
 24 59  1  6
 25 60  1  0
 25 61  1  0
 25 62  1  0
 27 63  1  0
 30 64  1  0
 31 65  1  0
 35 66  1  0
 35 67  1  0
 36 68  1  0
 36 69  1  0
M  CHG  1   4   1
M  END
>  <RMSD>  (45) 
0.18563723403745022

$$$$

     RDKit          3D

 63 68  0  0  0  0  0  0  0  0999 V2000
   -7.1740   -5.0968  -22.9659 C   0  0  0  0  0  0  0  0  0  0  0  0
   -7.5399   -3.9459  -22.0267 C   0  0  1  0  0  0  0  0  0  0  0  0
   -6.3312   -3.3263  -21.3007 C   0  0  0  0  0  0  0  0  0  0  0  0
   -6.8097   -2.0005  -20.9494 N   0  0  0  0  0  0  0  0  0  0  0  0
   -6.1840   -1.1509  -20.0005 C   0  0  0  0  0  0  0  0  0  0  0  0
   -6.5589   -1.2268  -18.6837 C   0  0  0  0  0  0  0  0  0  0  0  0
   -6.0116   -0.4954  -17.6795 N   0  0  0  0  0  0  0  0  0  0  0  0
   -5.0630    0.3505  -18.0049 C   0  0  0  0  0  0  0  0  0  0  0  0
   -4.5720    0.5373  -19.3325 C   0  0  0  0  0  0  0  0  0  0  0  0
   -3.5556    1.4861  -19.6324 C   0  0  0  0  0  0  0  0  0  0  0  0
   -3.0976    1.6257  -20.9154 C   0  0  0  0  0  0  0  0  0  0  0  0
   -3.6225    0.8184  -21.9501 C   0  0  0  0  0  0  0  0  0  0  0  0
   -4.6156   -0.0963  -21.6873 C   0  0  0  0  0  0  0  0  0  0  0  0
   -5.1319   -0.2473  -20.3687 C   0  0  0  0  0  0  0  0  0  0  0  0
   -7.9443   -1.6141  -21.6306 C   0  0  0  0  0  0  0  0  0  0  0  0
   -8.5318   -0.5689  -21.4390 O   0  0  0  0  0  0  0  0  0  0  0  0
   -8.2738   -2.7251  -22.6626 C   0  0  1  0  0  0  0  0  0  0  0  0
   -7.6157   -2.3465  -24.0092 C   0  0  0  0  0  0  0  0  0  0  0  0
   -8.3827   -1.3225  -24.7144 N   0  0  0  0  0  0  0  0  0  0  0  0
   -7.6157   -0.5414  -25.6828 C   0  0  0  0  0  0  0  0  0  0  0  0
   -6.7984    0.6168  -25.0859 C   0  0  0  0  0  0  0  0  0  0  0  0
   -5.7042    0.9236  -25.5366 O   0  0  0  0  0  0  0  0  0  0  0  0
   -7.3798    1.2665  -24.0494 N   0  0  0  0  0  0  0  0  0  0  0  0
   -6.7526    2.4275  -23.4347 C   0  0  0  0  0  0  0  0  0  0  0  0
   -6.9700    3.7329  -24.1809 C   0  0  0  0  0  0  0  0  0  0  0  0
   -6.9682    5.0258  -23.4062 C   0  0  0  0  0  0  0  0  0  0  0  0
   -8.2585    4.4869  -23.9828 C   0  0  0  0  0  0  0  0  0  0  0  0
   -9.6728   -1.6988  -25.0746 C   0  0  0  0  0  0  0  0  0  0  0  0
  -10.1689   -1.4577  -26.1594 O   0  0  0  0  0  0  0  0  0  0  0  0
  -10.4303   -2.3778  -23.9691 C   0  0  0  0  0  0  0  0  0  0  0  0
  -11.8232   -2.4469  -24.0689 C   0  0  0  0  0  0  0  0  0  0  0  0
  -12.5806   -3.0076  -23.0595 C   0  0  0  0  0  0  0  0  0  0  0  0
  -11.9087   -3.5178  -21.9551 C   0  0  0  0  0  0  0  0  0  0  0  0
  -12.6284   -4.0758  -20.9689 F   0  0  0  0  0  0  0  0  0  0  0  0
  -10.5361   -3.4744  -21.8285 C   0  0  0  0  0  0  0  0  0  0  0  0
   -9.7659   -2.8898  -22.8459 C   0  0  0  0  0  0  0  0  0  0  0  0
   -8.0329   -5.3997  -23.5760 H   0  0  0  0  0  0  0  0  0  0  0  0
   -6.3695   -4.8091  -23.6547 H   0  0  0  0  0  0  0  0  0  0  0  0
   -6.8293   -5.9755  -22.4069 H   0  0  0  0  0  0  0  0  0  0  0  0
   -8.2181   -4.3363  -21.2627 H   0  0  0  0  0  0  0  0  0  0  0  0
   -5.4547   -3.2882  -21.9709 H   0  0  0  0  0  0  0  0  0  0  0  0
   -6.0285   -3.8762  -20.4031 H   0  0  0  0  0  0  0  0  0  0  0  0
   -7.3471   -1.9193  -18.3923 H   0  0  0  0  0  0  0  0  0  0  0  0
   -4.6334    0.9402  -17.1955 H   0  0  0  0  0  0  0  0  0  0  0  0
   -3.1728    2.1025  -18.8241 H   0  0  0  0  0  0  0  0  0  0  0  0
   -2.3439    2.3720  -21.1534 H   0  0  0  0  0  0  0  0  0  0  0  0
   -3.2656    0.9480  -22.9701 H   0  0  0  0  0  0  0  0  0  0  0  0
   -5.0186   -0.7065  -22.4903 H   0  0  0  0  0  0  0  0  0  0  0  0
   -6.6178   -1.9426  -23.8269 H   0  0  0  0  0  0  0  0  0  0  0  0
   -7.5138   -3.2442  -24.6439 H   0  0  0  0  0  0  0  0  0  0  0  0
   -8.3389   -0.1457  -26.4019 H   0  0  0  0  0  0  0  0  0  0  0  0
   -6.9049   -1.1568  -26.2434 H   0  0  0  0  0  0  0  0  0  0  0  0
   -8.3136    0.9961  -23.7704 H   0  0  0  0  0  0  0  0  0  0  0  0
   -5.6798    2.2209  -23.3489 H   0  0  0  0  0  0  0  0  0  0  0  0
   -7.1661    2.5236  -22.4217 H   0  0  0  0  0  0  0  0  0  0  0  0
   -6.5250    3.7499  -25.1759 H   0  0  0  0  0  0  0  0  0  0  0  0
   -6.5137    5.9114  -23.8530 H   0  0  0  0  0  0  0  0  0  0  0  0
   -6.8160    4.9841  -22.3244 H   0  0  0  0  0  0  0  0  0  0  0  0
   -9.0023    4.0681  -23.3020 H   0  0  0  0  0  0  0  0  0  0  0  0
   -8.7111    4.9880  -24.8384 H   0  0  0  0  0  0  0  0  0  0  0  0
  -12.2951   -2.0207  -24.9468 H   0  0  0  0  0  0  0  0  0  0  0  0
  -13.6664   -3.0331  -23.0862 H   0  0  0  0  0  0  0  0  0  0  0  0
  -10.0859   -3.8874  -20.9309 H   0  0  0  0  0  0  0  0  0  0  0  0
  1  2  1  0
  2  3  1  0
  3  4  1  0
  4  5  1  0
  5  6  2  0
  6  7  1  0
  7  8  2  0
  8  9  1  0
  9 10  2  0
 10 11  1  0
 11 12  2  0
 12 13  1  0
 13 14  2  0
  4 15  1  0
 15 16  2  0
 15 17  1  0
 17 18  1  6
 18 19  1  0
 19 20  1  0
 20 21  1  0
 21 22  2  0
 21 23  1  0
 23 24  1  0
 24 25  1  0
 25 26  1  0
 26 27  1  0
 19 28  1  0
 28 29  2  0
 28 30  1  0
 30 31  2  0
 31 32  1  0
 32 33  2  0
 33 34  1  0
 33 35  1  0
 35 36  2  0
 17  2  1  0
 27 25  1  0
 36 30  1  0
 14  5  1  0
 36 17  1  0
 14  9  1  0
  1 37  1  0
  1 38  1  0
  1 39  1  0
  2 40  1  1
  3 41  1  0
  3 42  1  0
  6 43  1  0
  8 44  1  0
 10 45  1  0
 11 46  1  0
 12 47  1  0
 13 48  1  0
 18 49  1  0
 18 50  1  0
 20 51  1  0
 20 52  1  0
 23 53  1  0
 24 54  1  0
 24 55  1  0
 25 56  1  0
 26 57  1  0
 26 58  1  0
 27 59  1  0
 27 60  1  0
 31 61  1  0
 32 62  1  0
 35 63  1  0
M  END
>  <RMSD>  (46) 
0.06884992490275758

$$$$

     RDKit          3D

 26 30  0  0  0  0  0  0  0  0999 V2000
   -5.1987   -4.3748  -20.6464 O   0  0  0  0  0  0  0  0  0  0  0  0
   -5.7696   -3.6512  -21.5004 C   0  0  0  0  0  0  0  0  0  0  0  0
   -6.2475   -4.1088  -22.7613 N   0  0  0  0  0  0  0  0  0  0  0  0
   -7.2590   -3.1531  -23.2300 C   0  0  2  0  0  0  0  0  0  0  0  0
   -8.5285   -3.5235  -22.5137 C   0  0  0  0  0  0  0  0  0  0  0  0
   -9.7531   -2.9393  -23.1379 C   0  0  0  0  0  0  0  0  0  0  0  0
   -9.7384   -3.0267  -24.5444 O   0  0  0  0  0  0  0  0  0  0  0  0
   -8.6014   -3.0030  -25.3107 C   0  0  0  0  0  0  0  0  0  0  0  0
   -8.7032   -2.9179  -26.6862 C   0  0  0  0  0  0  0  0  0  0  0  0
   -7.5424   -2.8954  -27.4498 C   0  0  0  0  0  0  0  0  0  0  0  0
   -6.3732   -2.9576  -26.8156 N   0  0  0  0  0  0  0  0  0  0  0  0
   -6.2585   -3.0408  -25.4729 C   0  0  0  0  0  0  0  0  0  0  0  0
   -7.3739   -3.0663  -24.6751 C   0  0  0  0  0  0  0  0  0  0  0  0
   -6.7002   -1.9032  -22.6013 C   0  0  0  0  0  0  0  0  0  0  0  0
   -6.8215   -0.7743  -23.1116 O   0  0  0  0  0  0  0  0  0  0  0  0
   -6.0506   -2.2551  -21.3870 N   0  0  0  0  0  0  0  0  0  0  0  0
   -5.7801   -1.3499  -20.3326 C   0  0  0  0  0  0  0  0  0  0  0  0
   -6.4833   -1.4036  -19.1223 C   0  0  0  0  0  0  0  0  0  0  0  0
   -6.2760   -0.5846  -18.1023 N   0  0  0  0  0  0  0  0  0  0  0  0
   -5.3420    0.3707  -18.1948 C   0  0  0  0  0  0  0  0  0  0  0  0
   -4.5922    0.5091  -19.3470 C   0  0  0  0  0  0  0  0  0  0  0  0
   -3.6248    1.4830  -19.4702 C   0  0  0  0  0  0  0  0  0  0  0  0
   -2.8890    1.6120  -20.6129 C   0  0  0  0  0  0  0  0  0  0  0  0
   -3.0835    0.7776  -21.6849 C   0  0  0  0  0  0  0  0  0  0  0  0
   -4.0590   -0.2050  -21.5618 C   0  0  0  0  0  0  0  0  0  0  0  0
   -4.8198   -0.3619  -20.4188 C   0  0  0  0  0  0  0  0  0  0  0  0
  1  2  2  0
  2  3  1  0
  4  3  1  0
  4  5  1  1
  5  6  1  0
  6  7  1  0
  7  8  1  0
  8  9  2  0
  9 10  1  0
 10 11  2  0
 11 12  1  0
 12 13  2  0
  4 14  1  0
 14 15  2  0
 14 16  1  0
 16 17  1  0
 17 18  2  0
 18 19  1  0
 19 20  2  0
 20 21  1  0
 21 22  2  0
 22 23  1  0
 23 24  2  0
 24 25  1  0
 25 26  2  0
 16  2  1  0
 26 17  1  0
 13  4  1  0
 26 21  1  0
 13  8  1  0
M  END
>  <minimizedAffinity>  (47) 
-7.56286

>  <CNNscore>  (47) 
0.6859658957

>  <CNNaffinity>  (47) 
5.6039547920

>  <CNN_VS>  (47) 
3.8441219330

>  <CNNaffinity_variance>  (47) 
0.2837896943

$$$$

     RDKit          3D

 70 75  0  0  0  0  0  0  0  0999 V2000
    6.1984    4.0959   22.3204 C   0  0  0  0  0  0  0  0  0  0  0  0
    6.8534    3.1783   23.2558 N   0  0  0  0  0  0  0  0  0  0  0  0
    6.0528    2.9682   24.4881 C   0  0  0  0  0  0  0  0  0  0  0  0
    6.6828    1.9164   25.4206 C   0  0  0  0  0  0  0  0  0  0  0  0
    7.5382    0.9805   24.7113 N   0  0  0  0  0  0  0  0  0  0  0  0
    7.0050   -0.2951   24.2921 C   0  0  0  0  0  0  0  0  0  0  0  0
    7.6914   -0.8704   23.0246 C   0  0  2  0  0  0  0  0  0  0  0  0
    7.3254   -0.0166   21.7929 C   0  0  0  0  0  0  0  0  0  0  0  0
    7.6668    1.1467   21.6099 O   0  0  0  0  0  0  0  0  0  0  0  0
    6.5084   -0.7152   20.9460 N   0  0  0  0  0  0  0  0  0  0  0  0
    5.8745   -0.0802   19.8316 C   0  0  0  0  0  0  0  0  0  0  0  0
    6.3002   -0.3497   18.5574 C   0  0  0  0  0  0  0  0  0  0  0  0
    5.7689    0.1920   17.4312 N   0  0  0  0  0  0  0  0  0  0  0  0
    4.7663    1.0281   17.5740 C   0  0  0  0  0  0  0  0  0  0  0  0
    4.2115    1.3875   18.8334 C   0  0  0  0  0  0  0  0  0  0  0  0
    3.1156    2.2883   18.9381 C   0  0  0  0  0  0  0  0  0  0  0  0
    2.5946    2.6052   20.1651 C   0  0  0  0  0  0  0  0  0  0  0  0
    3.1501    2.0435   21.3363 C   0  0  0  0  0  0  0  0  0  0  0  0
    4.2200    1.1857   21.2632 C   0  0  0  0  0  0  0  0  0  0  0  0
    4.7807    0.8276   20.0033 C   0  0  0  0  0  0  0  0  0  0  0  0
    6.0379   -1.9605   21.5297 C   0  0  0  0  0  0  0  0  0  0  0  0
    7.0550   -2.2491   22.6590 C   0  0  2  0  0  0  0  0  0  0  0  0
    6.4030   -3.0227   23.8274 C   0  0  0  0  0  0  0  0  0  0  0  0
    5.9415   -4.3121   23.4613 O   0  0  0  0  0  0  0  0  0  0  0  0
    6.8620   -5.3448   23.7573 C   0  0  0  0  0  0  0  0  0  0  0  0
    6.6658   -6.4963   22.7969 C   0  0  0  0  0  0  0  0  0  0  0  0
    5.2919   -7.1446   22.5641 C   0  0  0  0  0  0  0  0  0  0  0  0
    5.3097   -6.7802   21.1752 O   0  0  0  0  0  0  0  0  0  0  0  0
    6.5439   -6.0713   21.3377 C   0  0  0  0  0  0  0  0  0  0  0  0
    9.1986   -0.8110   23.2626 C   0  0  0  0  0  0  0  0  0  0  0  0
   10.1020   -1.7409   22.7252 C   0  0  0  0  0  0  0  0  0  0  0  0
   11.4626   -1.5807   22.9416 C   0  0  0  0  0  0  0  0  0  0  0  0
   12.5654   -2.7723   22.3142 Cl  0  0  0  0  0  0  0  0  0  0  0  0
   11.9818   -0.4895   23.6357 C   0  0  0  0  0  0  0  0  0  0  0  0
   11.1009    0.4565   24.1216 C   0  0  0  0  0  0  0  0  0  0  0  0
    9.7283    0.2983   23.9485 C   0  0  0  0  0  0  0  0  0  0  0  0
    8.8252    1.3514   24.5023 C   0  0  0  0  0  0  0  0  0  0  0  0
    9.2114    2.4982   24.7456 O   0  0  0  0  0  0  0  0  0  0  0  0
    5.1625    3.7823   22.1532 H   0  0  0  0  0  0  0  0  0  0  0  0
    6.7044    4.0909   21.3542 H   0  0  0  0  0  0  0  0  0  0  0  0
    6.1874    5.1120   22.7259 H   0  0  0  0  0  0  0  0  0  0  0  0
    7.7815    3.5289   23.5433 H   0  0  0  0  0  0  0  0  0  0  0  0
    7.0381    2.2803   22.7735 H   0  0  0  0  0  0  0  0  0  0  0  0
    5.0368    2.6589   24.2069 H   0  0  0  0  0  0  0  0  0  0  0  0
    5.9540    3.9213   25.0238 H   0  0  0  0  0  0  0  0  0  0  0  0
    5.9023    1.3501   25.9403 H   0  0  0  0  0  0  0  0  0  0  0  0
    7.2980    2.3821   26.1943 H   0  0  0  0  0  0  0  0  0  0  0  0
    5.9346   -0.1635   24.0848 H   0  0  0  0  0  0  0  0  0  0  0  0
    7.1413   -1.0167   25.1061 H   0  0  0  0  0  0  0  0  0  0  0  0
    7.1305   -1.0318   18.3835 H   0  0  0  0  0  0  0  0  0  0  0  0
    4.3431    1.4682   16.6676 H   0  0  0  0  0  0  0  0  0  0  0  0
    2.7114    2.7260   18.0298 H   0  0  0  0  0  0  0  0  0  0  0  0
    1.7589    3.2936   20.2490 H   0  0  0  0  0  0  0  0  0  0  0  0
    2.7464    2.3182   22.3087 H   0  0  0  0  0  0  0  0  0  0  0  0
    4.6557    0.7808   22.1730 H   0  0  0  0  0  0  0  0  0  0  0  0
    5.0288   -1.8551   21.9620 H   0  0  0  0  0  0  0  0  0  0  0  0
    6.0087   -2.7527   20.7743 H   0  0  0  0  0  0  0  0  0  0  0  0
    7.8319   -2.8896   22.2431 H   0  0  0  0  0  0  0  0  0  0  0  0
    5.5122   -2.4845   24.1677 H   0  0  0  0  0  0  0  0  0  0  0  0
    7.0861   -3.1214   24.6844 H   0  0  0  0  0  0  0  0  0  0  0  0
    6.7690   -5.6857   24.8014 H   0  0  0  0  0  0  0  0  0  0  0  0
    7.8748   -4.9391   23.6211 H   0  0  0  0  0  0  0  0  0  0  0  0
    7.4258   -7.2602   22.9764 H   0  0  0  0  0  0  0  0  0  0  0  0
    4.4449   -6.7137   23.1095 H   0  0  0  0  0  0  0  0  0  0  0  0
    5.2720   -8.2335   22.6753 H   0  0  0  0  0  0  0  0  0  0  0  0
    7.3402   -6.4008   20.6666 H   0  0  0  0  0  0  0  0  0  0  0  0
    6.3967   -4.9951   21.2060 H   0  0  0  0  0  0  0  0  0  0  0  0
    9.7695   -2.5725   22.1121 H   0  0  0  0  0  0  0  0  0  0  0  0
   13.0546   -0.3784   23.7643 H   0  0  0  0  0  0  0  0  0  0  0  0
   11.4574    1.3409   24.6402 H   0  0  0  0  0  0  0  0  0  0  0  0
  1  2  1  0
  2  3  1  0
  3  4  1  0
  4  5  1  0
  5  6  1  0
  7  6  1  1
  7  8  1  0
  8  9  2  0
  8 10  1  0
 10 11  1  0
 11 12  2  0
 12 13  1  0
 13 14  2  0
 14 15  1  0
 15 16  2  0
 16 17  1  0
 17 18  2  0
 18 19  1  0
 19 20  2  0
 10 21  1  0
 21 22  1  0
 22 23  1  0
 23 24  1  0
 24 25  1  0
 25 26  1  0
 26 27  1  0
 27 28  1  0
 28 29  1  0
  7 30  1  0
 30 31  2  0
 31 32  1  0
 32 33  1  0
 32 34  2  0
 34 35  1  0
 35 36  2  0
 36 37  1  0
 37 38  2  0
 37  5  1  0
 22  7  1  0
 29 26  1  0
 36 30  1  0
 20 11  1  0
 20 15  1  0
  1 39  1  0
  1 40  1  0
  1 41  1  0
  2 42  1  0
  2 43  1  0
  3 44  1  0
  3 45  1  0
  4 46  1  0
  4 47  1  0
  6 48  1  0
  6 49  1  0
 12 50  1  0
 14 51  1  0
 16 52  1  0
 17 53  1  0
 18 54  1  0
 19 55  1  0
 21 56  1  0
 21 57  1  0
 22 58  1  6
 23 59  1  0
 23 60  1  0
 25 61  1  0
 25 62  1  0
 26 63  1  0
 27 64  1  0
 27 65  1  0
 29 66  1  0
 29 67  1  0
 31 68  1  0
 34 69  1  0
 35 70  1  0
M  CHG  1   2   1
M  END
>  <RMSD>  (48) 
0.1874417470607311

$$$$

     RDKit          3D

 68 73  0  0  0  0  0  0  0  0999 V2000
   -6.7725    2.5877  -23.1832 C   0  0  0  0  0  0  0  0  0  0  0  0
   -7.3165    1.3866  -23.7846 N   0  0  0  0  0  0  0  0  0  0  0  0
   -6.8498    0.9913  -24.9892 C   0  0  0  0  0  0  0  0  0  0  0  0
   -6.0508    1.6467  -25.6410 O   0  0  0  0  0  0  0  0  0  0  0  0
   -7.3770   -0.3297  -25.5706 C   0  0  0  0  0  0  0  0  0  0  0  0
   -8.1708   -1.1534  -24.6851 N   0  0  0  0  0  0  0  0  0  0  0  0
   -7.5800   -2.3356  -24.0833 C   0  0  0  0  0  0  0  0  0  0  0  0
   -8.2284   -2.6628  -22.7071 C   0  0  2  0  0  0  0  0  0  0  0  0
   -7.8523   -1.5462  -21.7021 C   0  0  0  0  0  0  0  0  0  0  0  0
   -8.3503   -0.4398  -21.6064 O   0  0  0  0  0  0  0  0  0  0  0  0
   -6.7974   -1.9964  -20.9430 N   0  0  0  0  0  0  0  0  0  0  0  0
   -6.1645   -1.1618  -19.9879 C   0  0  0  0  0  0  0  0  0  0  0  0
   -6.5489   -1.2363  -18.6743 C   0  0  0  0  0  0  0  0  0  0  0  0
   -6.0178   -0.4896  -17.6742 N   0  0  0  0  0  0  0  0  0  0  0  0
   -5.0746    0.3601  -18.0087 C   0  0  0  0  0  0  0  0  0  0  0  0
   -4.5835    0.5423  -19.3332 C   0  0  0  0  0  0  0  0  0  0  0  0
   -3.5628    1.4847  -19.6324 C   0  0  0  0  0  0  0  0  0  0  0  0
   -3.1010    1.6188  -20.9130 C   0  0  0  0  0  0  0  0  0  0  0  0
   -3.6316    0.8242  -21.9542 C   0  0  0  0  0  0  0  0  0  0  0  0
   -4.6270   -0.0863  -21.6929 C   0  0  0  0  0  0  0  0  0  0  0  0
   -5.1360   -0.2462  -20.3701 C   0  0  0  0  0  0  0  0  0  0  0  0
   -6.3263   -3.3179  -21.3169 C   0  0  0  0  0  0  0  0  0  0  0  0
   -7.5566   -3.8897  -22.0344 C   0  0  2  0  0  0  0  0  0  0  0  0
   -7.2756   -5.0823  -22.9668 C   0  0  0  0  0  0  0  0  0  0  0  0
   -6.9552   -6.3137  -22.2783 N   0  0  0  0  0  0  0  0  0  0  0  0
   -5.7143   -6.5089  -21.6792 C   0  0  0  0  0  0  0  0  0  0  0  0
   -4.5114   -6.0040  -22.2097 C   0  0  0  0  0  0  0  0  0  0  0  0
   -3.2935   -6.4046  -21.6747 C   0  0  0  0  0  0  0  0  0  0  0  0
   -3.2461   -7.1803  -20.5239 C   0  0  0  0  0  0  0  0  0  0  0  0
   -4.4386   -7.5339  -19.9010 C   0  0  0  0  0  0  0  0  0  0  0  0
   -5.6592   -7.2546  -20.4903 C   0  0  0  0  0  0  0  0  0  0  0  0
   -9.7276   -2.7437  -22.9152 C   0  0  0  0  0  0  0  0  0  0  0  0
  -10.5545   -3.6220  -22.2000 C   0  0  0  0  0  0  0  0  0  0  0  0
  -11.9283   -3.5493  -22.3517 C   0  0  0  0  0  0  0  0  0  0  0  0
  -12.9442   -4.6307  -21.4437 Cl  0  0  0  0  0  0  0  0  0  0  0  0
  -12.5276   -2.6237  -23.2048 C   0  0  0  0  0  0  0  0  0  0  0  0
  -11.7190   -1.7749  -23.9296 C   0  0  0  0  0  0  0  0  0  0  0  0
  -10.3340   -1.8468  -23.8073 C   0  0  0  0  0  0  0  0  0  0  0  0
   -9.5223   -0.9420  -24.6812 C   0  0  0  0  0  0  0  0  0  0  0  0
  -10.0360   -0.0590  -25.3553 O   0  0  0  0  0  0  0  0  0  0  0  0
   -6.8772    3.4482  -23.8553 H   0  0  0  0  0  0  0  0  0  0  0  0
   -7.3124    2.7921  -22.2548 H   0  0  0  0  0  0  0  0  0  0  0  0
   -5.7062    2.4562  -22.9555 H   0  0  0  0  0  0  0  0  0  0  0  0
   -7.8387    0.7480  -23.1860 H   0  0  0  0  0  0  0  0  0  0  0  0
   -7.9771   -0.0793  -26.4547 H   0  0  0  0  0  0  0  0  0  0  0  0
   -6.5048   -0.8905  -25.9221 H   0  0  0  0  0  0  0  0  0  0  0  0
   -7.7043   -3.1939  -24.7594 H   0  0  0  0  0  0  0  0  0  0  0  0
   -6.5058   -2.1492  -23.9623 H   0  0  0  0  0  0  0  0  0  0  0  0
   -7.3347   -1.9359  -18.3947 H   0  0  0  0  0  0  0  0  0  0  0  0
   -4.6467    0.9626  -17.2078 H   0  0  0  0  0  0  0  0  0  0  0  0
   -3.1632    2.0916  -18.8239 H   0  0  0  0  0  0  0  0  0  0  0  0
   -2.3201    2.3381  -21.1403 H   0  0  0  0  0  0  0  0  0  0  0  0
   -3.2674    0.9528  -22.9718 H   0  0  0  0  0  0  0  0  0  0  0  0
   -5.0264   -0.6852  -22.5076 H   0  0  0  0  0  0  0  0  0  0  0  0
   -6.0287   -3.8958  -20.4371 H   0  0  0  0  0  0  0  0  0  0  0  0
   -5.4485   -3.2763  -21.9856 H   0  0  0  0  0  0  0  0  0  0  0  0
   -8.2161   -4.2141  -21.2195 H   0  0  0  0  0  0  0  0  0  0  0  0
   -8.1662   -5.2557  -23.5892 H   0  0  0  0  0  0  0  0  0  0  0  0
   -6.4447   -4.8260  -23.6442 H   0  0  0  0  0  0  0  0  0  0  0  0
   -7.7253   -6.6801  -21.7190 H   0  0  0  0  0  0  0  0  0  0  0  0
   -4.4959   -5.2871  -23.0295 H   0  0  0  0  0  0  0  0  0  0  0  0
   -2.3615   -6.1038  -22.1487 H   0  0  0  0  0  0  0  0  0  0  0  0
   -2.2935   -7.5233  -20.1375 H   0  0  0  0  0  0  0  0  0  0  0  0
   -4.4013   -8.0129  -18.9294 H   0  0  0  0  0  0  0  0  0  0  0  0
   -6.5809   -7.5903  -20.0153 H   0  0  0  0  0  0  0  0  0  0  0  0
  -10.1533   -4.3654  -21.5201 H   0  0  0  0  0  0  0  0  0  0  0  0
  -13.6062   -2.5750  -23.3010 H   0  0  0  0  0  0  0  0  0  0  0  0
  -12.1295   -1.0365  -24.6092 H   0  0  0  0  0  0  0  0  0  0  0  0
  1  2  1  0
  2  3  1  0
  3  4  2  0
  3  5  1  0
  5  6  1  0
  6  7  1  0
  8  7  1  6
  8  9  1  0
  9 10  2  0
  9 11  1  0
 11 12  1  0
 12 13  2  0
 13 14  1  0
 14 15  2  0
 15 16  1  0
 16 17  2  0
 17 18  1  0
 18 19  2  0
 19 20  1  0
 20 21  2  0
 11 22  1  0
 22 23  1  0
 23 24  1  0
 24 25  1  0
 25 26  1  0
 26 27  2  0
 27 28  1  0
 28 29  2  0
 29 30  1  0
 30 31  2  0
  8 32  1  0
 32 33  2  0
 33 34  1  0
 34 35  1  0
 34 36  2  0
 36 37  1  0
 37 38  2  0
 38 39  1  0
 39 40  2  0
 39  6  1  0
 23  8  1  0
 31 26  1  0
 38 32  1  0
 21 12  1  0
 21 16  1  0
  1 41  1  0
  1 42  1  0
  1 43  1  0
  2 44  1  0
  5 45  1  0
  5 46  1  0
  7 47  1  0
  7 48  1  0
 13 49  1  0
 15 50  1  0
 17 51  1  0
 18 52  1  0
 19 53  1  0
 20 54  1  0
 22 55  1  0
 22 56  1  0
 23 57  1  1
 24 58  1  0
 24 59  1  0
 25 60  1  0
 27 61  1  0
 28 62  1  0
 29 63  1  0
 30 64  1  0
 31 65  1  0
 33 66  1  0
 36 67  1  0
 37 68  1  0
M  END
>  <RMSD>  (49) 
0.062453354328469816

$$$$

     RDKit          3D

 65 70  0  0  0  0  0  0  0  0999 V2000
   -5.6572    0.9245  -25.5387 O   0  0  0  0  0  0  0  0  0  0  0  0
   -6.7640    0.6449  -25.1165 C   0  0  0  0  0  0  0  0  0  0  0  0
   -7.5900   -0.5136  -25.6875 C   0  0  0  0  0  0  0  0  0  0  0  0
   -8.3668   -1.2258  -24.6287 N   0  0  1  0  0  0  0  0  0  0  0  0
   -9.6795   -1.7613  -25.1111 C   0  0  0  0  0  0  0  0  0  0  0  0
  -10.4427   -2.3925  -23.9698 C   0  0  0  0  0  0  0  0  0  0  0  0
  -11.8334   -2.4461  -24.0485 C   0  0  0  0  0  0  0  0  0  0  0  0
  -12.5943   -3.0123  -23.0378 C   0  0  0  0  0  0  0  0  0  0  0  0
  -11.9325   -3.5329  -21.9315 C   0  0  0  0  0  0  0  0  0  0  0  0
  -12.8688   -4.2336  -20.6408 Cl  0  0  0  0  0  0  0  0  0  0  0  0
  -10.5509   -3.4817  -21.8230 C   0  0  0  0  0  0  0  0  0  0  0  0
   -9.7826   -2.9143  -22.8468 C   0  0  0  0  0  0  0  0  0  0  0  0
   -8.2828   -2.7531  -22.6560 C   0  0  2  0  0  0  0  0  0  0  0  0
   -7.5438   -3.9500  -22.0350 C   0  0  0  0  0  0  0  0  0  0  0  0
   -6.3420   -3.3277  -21.3118 C   0  0  0  0  0  0  0  0  0  0  0  0
   -6.8244   -2.0003  -20.9545 N   0  0  0  0  0  0  0  0  0  0  0  0
   -6.1852   -1.1536  -20.0023 C   0  0  0  0  0  0  0  0  0  0  0  0
   -6.5557   -1.2326  -18.6861 C   0  0  0  0  0  0  0  0  0  0  0  0
   -6.0128   -0.4970  -17.6808 N   0  0  0  0  0  0  0  0  0  0  0  0
   -5.0625    0.3498  -18.0022 C   0  0  0  0  0  0  0  0  0  0  0  0
   -4.5668    0.5330  -19.3252 C   0  0  0  0  0  0  0  0  0  0  0  0
   -3.5561    1.4880  -19.6316 C   0  0  0  0  0  0  0  0  0  0  0  0
   -3.1018    1.6300  -20.9138 C   0  0  0  0  0  0  0  0  0  0  0  0
   -3.6242    0.8190  -21.9482 C   0  0  0  0  0  0  0  0  0  0  0  0
   -4.6115   -0.0986  -21.6828 C   0  0  0  0  0  0  0  0  0  0  0  0
   -5.1264   -0.2573  -20.3661 C   0  0  0  0  0  0  0  0  0  0  0  0
   -7.9583   -1.6327  -21.6438 C   0  0  0  0  0  0  0  0  0  0  0  0
   -8.5330   -0.5680  -21.5473 O   0  0  0  0  0  0  0  0  0  0  0  0
   -7.5922   -2.3615  -23.9830 C   0  0  0  0  0  0  0  0  0  0  0  0
   -7.3917    1.2879  -24.0711 N   0  0  0  0  0  0  0  0  0  0  0  0
   -6.7828    2.4314  -23.4186 C   0  0  0  0  0  0  0  0  0  0  0  0
   -6.9746    3.7325  -24.1809 C   0  0  1  0  0  0  0  0  0  0  0  0
   -6.5960    5.0000  -23.3881 C   0  0  0  0  0  0  0  0  0  0  0  0
   -5.5244    5.3301  -24.4339 C   0  0  1  0  0  0  0  0  0  0  0  0
   -4.2323    5.3185  -23.9346 F   0  0  0  0  0  0  0  0  0  0  0  0
   -5.8910    4.0752  -25.2350 C   0  0  0  0  0  0  0  0  0  0  0  0
   -8.2818   -0.1207  -26.4450 H   0  0  0  0  0  0  0  0  0  0  0  0
   -6.9094   -1.1934  -26.2067 H   0  0  0  0  0  0  0  0  0  0  0  0
   -8.5631   -0.5574  -23.8465 H   0  0  0  0  0  0  0  0  0  0  0  0
   -9.5073   -2.4942  -25.9179 H   0  0  0  0  0  0  0  0  0  0  0  0
  -10.2672   -0.9444  -25.5439 H   0  0  0  0  0  0  0  0  0  0  0  0
  -12.3308   -2.0245  -24.9187 H   0  0  0  0  0  0  0  0  0  0  0  0
  -13.6784   -3.0193  -23.0925 H   0  0  0  0  0  0  0  0  0  0  0  0
  -10.0866   -3.8811  -20.9269 H   0  0  0  0  0  0  0  0  0  0  0  0
   -8.1797   -4.4761  -21.3210 H   0  0  0  0  0  0  0  0  0  0  0  0
   -7.2540   -4.6810  -22.7945 H   0  0  0  0  0  0  0  0  0  0  0  0
   -5.4628   -3.2936  -21.9743 H   0  0  0  0  0  0  0  0  0  0  0  0
   -6.0638   -3.8825  -20.4139 H   0  0  0  0  0  0  0  0  0  0  0  0
   -7.3508   -1.9175  -18.3978 H   0  0  0  0  0  0  0  0  0  0  0  0
   -4.6332    0.9461  -17.1937 H   0  0  0  0  0  0  0  0  0  0  0  0
   -3.1639    2.1144  -18.8311 H   0  0  0  0  0  0  0  0  0  0  0  0
   -2.3448    2.3724  -21.1560 H   0  0  0  0  0  0  0  0  0  0  0  0
   -3.2663    0.9456  -22.9678 H   0  0  0  0  0  0  0  0  0  0  0  0
   -5.0174   -0.7034  -22.4901 H   0  0  0  0  0  0  0  0  0  0  0  0
   -6.5663   -2.0266  -23.8075 H   0  0  0  0  0  0  0  0  0  0  0  0
   -7.5496   -3.2141  -24.6737 H   0  0  0  0  0  0  0  0  0  0  0  0
   -8.4033    1.3342  -24.0834 H   0  0  0  0  0  0  0  0  0  0  0  0
   -5.7207    2.2197  -23.2850 H   0  0  0  0  0  0  0  0  0  0  0  0
   -7.2121    2.5129  -22.4117 H   0  0  0  0  0  0  0  0  0  0  0  0
   -7.9878    3.7842  -24.5885 H   0  0  0  0  0  0  0  0  0  0  0  0
   -7.3932    5.7401  -23.2896 H   0  0  0  0  0  0  0  0  0  0  0  0
   -6.1756    4.8014  -22.3995 H   0  0  0  0  0  0  0  0  0  0  0  0
   -5.6528    6.2781  -24.9569 H   0  0  0  0  0  0  0  0  0  0  0  0
   -5.0763    3.3554  -25.3071 H   0  0  0  0  0  0  0  0  0  0  0  0
   -6.2672    4.2634  -26.2447 H   0  0  0  0  0  0  0  0  0  0  0  0
  1  2  2  0
  2  3  1  0
  3  4  1  0
  4  5  1  0
  5  6  1  0
  6  7  2  0
  7  8  1  0
  8  9  2  0
  9 10  1  0
  9 11  1  0
 11 12  2  0
 12 13  1  0
 13 14  1  1
 14 15  1  0
 15 16  1  0
 16 17  1  0
 17 18  2  0
 18 19  1  0
 19 20  2  0
 20 21  1  0
 21 22  2  0
 22 23  1  0
 23 24  2  0
 24 25  1  0
 25 26  2  0
 16 27  1  0
 27 28  2  0
 13 29  1  0
  2 30  1  0
 30 31  1  0
 31 32  1  0
 32 33  1  0
 33 34  1  0
 34 35  1  0
 34 36  1  0
 29  4  1  0
 36 32  1  0
 12  6  1  0
 27 13  1  0
 26 17  1  0
 26 21  1  0
  3 37  1  0
  3 38  1  0
  4 39  1  1
  5 40  1  0
  5 41  1  0
  7 42  1  0
  8 43  1  0
 11 44  1  0
 14 45  1  0
 14 46  1  0
 15 47  1  0
 15 48  1  0
 18 49  1  0
 20 50  1  0
 22 51  1  0
 23 52  1  0
 24 53  1  0
 25 54  1  0
 29 55  1  0
 29 56  1  0
 30 57  1  0
 31 58  1  0
 31 59  1  0
 32 60  1  6
 33 61  1  0
 33 62  1  0
 34 63  1  6
 36 64  1  0
 36 65  1  0
M  CHG  1   4   1
M  END
>  <RMSD>  (50) 
0.06719878215016586

$$$$

     RDKit          3D

 70 75  0  0  0  0  0  0  0  0999 V2000
   -6.4975    2.1213  -25.9009 O   0  0  0  0  0  0  0  0  0  0  0  0
   -6.7892    1.3382  -25.0176 C   0  0  0  0  0  0  0  0  0  0  0  0
   -7.4888    0.0205  -25.3634 C   0  0  0  0  0  0  0  0  0  0  0  0
   -8.3406   -0.6030  -24.3198 N   0  0  1  0  0  0  0  0  0  0  0  0
   -9.8067   -0.5397  -24.6377 C   0  0  0  0  0  0  0  0  0  0  0  0
  -10.6384   -1.2830  -23.6147 C   0  0  0  0  0  0  0  0  0  0  0  0
  -12.0191   -1.0952  -23.6250 C   0  0  0  0  0  0  0  0  0  0  0  0
  -12.8573   -1.8605  -22.8261 C   0  0  0  0  0  0  0  0  0  0  0  0
  -12.2877   -2.8310  -22.0077 C   0  0  0  0  0  0  0  0  0  0  0  0
  -13.3273   -3.8377  -21.0362 Cl  0  0  0  0  0  0  0  0  0  0  0  0
  -10.9107   -3.0105  -21.9535 C   0  0  0  0  0  0  0  0  0  0  0  0
  -10.0727   -2.2203  -22.7451 C   0  0  0  0  0  0  0  0  0  0  0  0
   -8.5655   -2.3788  -22.6787 C   0  0  2  0  0  0  0  0  0  0  0  0
   -7.8733   -1.4221  -21.6979 C   0  0  0  0  0  0  0  0  0  0  0  0
   -8.1209   -0.2190  -21.6659 O   0  0  0  0  0  0  0  0  0  0  0  0
   -6.8445   -1.9438  -20.9734 N   0  0  0  0  0  0  0  0  0  0  0  0
   -6.1624   -1.1645  -19.9933 C   0  0  0  0  0  0  0  0  0  0  0  0
   -6.5480   -1.2342  -18.6819 C   0  0  0  0  0  0  0  0  0  0  0  0
   -5.9983   -0.5106  -17.6765 N   0  0  0  0  0  0  0  0  0  0  0  0
   -5.0474    0.3353  -17.9973 C   0  0  0  0  0  0  0  0  0  0  0  0
   -4.5636    0.5270  -19.3235 C   0  0  0  0  0  0  0  0  0  0  0  0
   -3.5674    1.4908  -19.6373 C   0  0  0  0  0  0  0  0  0  0  0  0
   -3.1291    1.6483  -20.9257 C   0  0  0  0  0  0  0  0  0  0  0  0
   -3.6283    0.8099  -21.9504 C   0  0  0  0  0  0  0  0  0  0  0  0
   -4.5783   -0.1436  -21.6627 C   0  0  0  0  0  0  0  0  0  0  0  0
   -5.1096   -0.2727  -20.3526 C   0  0  0  0  0  0  0  0  0  0  0  0
   -7.9578   -2.0315  -24.0353 C   0  0  0  0  0  0  0  0  0  0  0  0
   -6.4949    1.5316  -23.6984 N   0  0  0  0  0  0  0  0  0  0  0  0
   -6.1276    2.7755  -23.1551 C   0  0  0  0  0  0  0  0  0  0  0  0
   -6.8047    3.1680  -22.0062 C   0  0  0  0  0  0  0  0  0  0  0  0
   -6.5501    4.4041  -21.4394 C   0  0  0  0  0  0  0  0  0  0  0  0
   -5.5188    5.1958  -21.9417 C   0  0  0  0  0  0  0  0  0  0  0  0
   -5.1564    6.4155  -21.3230 N   0  0  0  0  0  0  0  0  0  0  0  0
   -6.1845    7.1620  -20.6093 C   0  0  0  0  0  0  0  0  0  0  0  0
   -5.7291    8.5850  -20.3276 C   0  0  0  0  0  0  0  0  0  0  0  0
   -4.4132    8.6180  -19.8232 O   0  0  0  0  0  0  0  0  0  0  0  0
   -3.4992    8.1018  -20.7561 C   0  0  0  0  0  0  0  0  0  0  0  0
   -3.8075    6.6621  -21.1237 C   0  0  0  0  0  0  0  0  0  0  0  0
   -2.9344    5.8369  -21.3020 O   0  0  0  0  0  0  0  0  0  0  0  0
   -4.8127    4.7770  -23.0659 C   0  0  0  0  0  0  0  0  0  0  0  0
   -5.1363    3.5880  -23.6924 C   0  0  0  0  0  0  0  0  0  0  0  0
   -6.7056   -0.6941  -25.6347 H   0  0  0  0  0  0  0  0  0  0  0  0
   -8.0742    0.2030  -26.2668 H   0  0  0  0  0  0  0  0  0  0  0  0
   -8.2770   -0.0943  -23.4120 H   0  0  0  0  0  0  0  0  0  0  0  0
   -9.9813   -0.9798  -25.6316 H   0  0  0  0  0  0  0  0  0  0  0  0
  -10.1364    0.5052  -24.6951 H   0  0  0  0  0  0  0  0  0  0  0  0
  -12.4441   -0.3520  -24.2959 H   0  0  0  0  0  0  0  0  0  0  0  0
  -13.9358   -1.7300  -22.8556 H   0  0  0  0  0  0  0  0  0  0  0  0
  -10.4977   -3.7915  -21.3193 H   0  0  0  0  0  0  0  0  0  0  0  0
   -8.3073   -3.3953  -22.3800 H   0  0  0  0  0  0  0  0  0  0  0  0
   -6.6343   -2.9269  -21.0446 H   0  0  0  0  0  0  0  0  0  0  0  0
   -7.3669   -1.8946  -18.4032 H   0  0  0  0  0  0  0  0  0  0  0  0
   -4.6019    0.9175  -17.1891 H   0  0  0  0  0  0  0  0  0  0  0  0
   -3.1887    2.1155  -18.8313 H   0  0  0  0  0  0  0  0  0  0  0  0
   -2.4066    2.4286  -21.1641 H   0  0  0  0  0  0  0  0  0  0  0  0
   -3.2775    0.9320  -22.9738 H   0  0  0  0  0  0  0  0  0  0  0  0
   -4.9426   -0.8030  -22.4447 H   0  0  0  0  0  0  0  0  0  0  0  0
   -8.3296   -2.6769  -24.8393 H   0  0  0  0  0  0  0  0  0  0  0  0
   -6.8684   -2.1115  -24.0009 H   0  0  0  0  0  0  0  0  0  0  0  0
   -6.7889    0.8771  -22.9850 H   0  0  0  0  0  0  0  0  0  0  0  0
   -7.5488    2.4960  -21.5814 H   0  0  0  0  0  0  0  0  0  0  0  0
   -7.1485    4.7549  -20.6071 H   0  0  0  0  0  0  0  0  0  0  0  0
   -7.0959    7.1695  -21.2157 H   0  0  0  0  0  0  0  0  0  0  0  0
   -6.4330    6.6859  -19.6541 H   0  0  0  0  0  0  0  0  0  0  0  0
   -5.8201    9.1850  -21.2446 H   0  0  0  0  0  0  0  0  0  0  0  0
   -6.3544    9.0270  -19.5471 H   0  0  0  0  0  0  0  0  0  0  0  0
   -3.5199    8.6864  -21.6907 H   0  0  0  0  0  0  0  0  0  0  0  0
   -2.4947    8.1410  -20.3238 H   0  0  0  0  0  0  0  0  0  0  0  0
   -4.0153    5.3962  -23.4591 H   0  0  0  0  0  0  0  0  0  0  0  0
   -4.5939    3.2788  -24.5780 H   0  0  0  0  0  0  0  0  0  0  0  0
  1  2  2  0
  2  3  1  0
  3  4  1  0
  4  5  1  0
  5  6  1  0
  6  7  2  0
  7  8  1  0
  8  9  2  0
  9 10  1  0
  9 11  1  0
 11 12  2  0
 12 13  1  0
 13 14  1  0
 14 15  2  0
 14 16  1  0
 16 17  1  0
 17 18  2  0
 18 19  1  0
 19 20  2  0
 20 21  1  0
 21 22  2  0
 22 23  1  0
 23 24  2  0
 24 25  1  0
 25 26  2  0
 13 27  1  0
  2 28  1  0
 28 29  1  0
 29 30  2  0
 30 31  1  0
 31 32  2  0
 32 33  1  0
 33 34  1  0
 34 35  1  0
 35 36  1  0
 36 37  1  0
 37 38  1  0
 38 39  2  0
 32 40  1  0
 40 41  2  0
 27  4  1  0
 41 29  1  0
 12  6  1  0
 26 17  1  0
 38 33  1  0
 26 21  1  0
  3 42  1  0
  3 43  1  0
  4 44  1  1
  5 45  1  0
  5 46  1  0
  7 47  1  0
  8 48  1  0
 11 49  1  0
 13 50  1  1
 16 51  1  0
 18 52  1  0
 20 53  1  0
 22 54  1  0
 23 55  1  0
 24 56  1  0
 25 57  1  0
 27 58  1  0
 27 59  1  0
 28 60  1  0
 30 61  1  0
 31 62  1  0
 34 63  1  0
 34 64  1  0
 35 65  1  0
 35 66  1  0
 37 67  1  0
 37 68  1  0
 40 69  1  0
 41 70  1  0
M  CHG  1   4   1
M  END
>  <RMSD>  (51) 
0.08007851852505687

$$$$

     RDKit          3D

 55 60  0  0  0  0  0  0  0  0999 V2000
   -7.2335   -5.0332  -23.0353 C   0  0  0  0  0  0  0  0  0  0  0  0
   -7.5631   -3.8769  -22.1002 C   0  0  1  0  0  0  0  0  0  0  0  0
   -6.3539   -3.2995  -21.3555 C   0  0  0  0  0  0  0  0  0  0  0  0
   -6.8091   -1.9734  -20.9771 N   0  0  0  0  0  0  0  0  0  0  0  0
   -6.1736   -1.1561  -20.0045 C   0  0  0  0  0  0  0  0  0  0  0  0
   -6.5467   -1.2440  -18.6855 C   0  0  0  0  0  0  0  0  0  0  0  0
   -6.0162   -0.5010  -17.6831 N   0  0  0  0  0  0  0  0  0  0  0  0
   -5.0741    0.3605  -17.9985 C   0  0  0  0  0  0  0  0  0  0  0  0
   -4.5718    0.5395  -19.3211 C   0  0  0  0  0  0  0  0  0  0  0  0
   -3.5559    1.4887  -19.6312 C   0  0  0  0  0  0  0  0  0  0  0  0
   -3.1048    1.6252  -20.9168 C   0  0  0  0  0  0  0  0  0  0  0  0
   -3.6322    0.8190  -21.9483 C   0  0  0  0  0  0  0  0  0  0  0  0
   -4.6179   -0.0996  -21.6780 C   0  0  0  0  0  0  0  0  0  0  0  0
   -5.1220   -0.2514  -20.3573 C   0  0  0  0  0  0  0  0  0  0  0  0
   -7.8820   -1.5272  -21.7261 C   0  0  0  0  0  0  0  0  0  0  0  0
   -8.4202   -0.4570  -21.5788 O   0  0  0  0  0  0  0  0  0  0  0  0
   -8.2330   -2.6374  -22.7525 C   0  0  1  0  0  0  0  0  0  0  0  0
   -7.5849   -2.2906  -24.1201 C   0  0  0  0  0  0  0  0  0  0  0  0
   -8.1495   -1.0853  -24.6917 N   0  0  0  0  0  0  0  0  0  0  0  0
   -7.3236   -0.2718  -25.5595 C   0  0  0  0  0  0  0  0  0  0  0  0
   -7.0043    1.0634  -24.9771 C   0  0  0  0  0  0  0  0  0  0  0  0
   -6.8406    2.2732  -25.6466 C   0  0  0  0  0  0  0  0  0  0  0  0
   -6.4903    3.2157  -24.7766 N   0  0  0  0  0  0  0  0  0  0  0  0
   -6.4588    2.5523  -23.6439 N   0  0  0  0  0  0  0  0  0  0  0  0
   -6.7499    1.2648  -23.6836 N   0  0  0  0  0  0  0  0  0  0  0  0
   -9.4898   -0.8142  -24.6480 C   0  0  0  0  0  0  0  0  0  0  0  0
   -9.9760    0.1405  -25.2384 O   0  0  0  0  0  0  0  0  0  0  0  0
  -10.3251   -1.7780  -23.8500 C   0  0  0  0  0  0  0  0  0  0  0  0
  -11.7159   -1.7199  -23.9784 C   0  0  0  0  0  0  0  0  0  0  0  0
  -12.5282   -2.5740  -23.2577 C   0  0  0  0  0  0  0  0  0  0  0  0
  -11.9211   -3.4977  -22.4157 C   0  0  0  0  0  0  0  0  0  0  0  0
  -12.6941   -4.3317  -21.6998 F   0  0  0  0  0  0  0  0  0  0  0  0
  -10.5514   -3.5858  -22.2677 C   0  0  0  0  0  0  0  0  0  0  0  0
   -9.7284   -2.7086  -22.9815 C   0  0  0  0  0  0  0  0  0  0  0  0
   -6.8780   -5.9046  -22.4765 H   0  0  0  0  0  0  0  0  0  0  0  0
   -6.4503   -4.7557  -23.7483 H   0  0  0  0  0  0  0  0  0  0  0  0
   -8.1090   -5.3418  -23.6179 H   0  0  0  0  0  0  0  0  0  0  0  0
   -8.2293   -4.2539  -21.3186 H   0  0  0  0  0  0  0  0  0  0  0  0
   -6.0977   -3.8859  -20.4695 H   0  0  0  0  0  0  0  0  0  0  0  0
   -5.4687   -3.2740  -22.0154 H   0  0  0  0  0  0  0  0  0  0  0  0
   -7.3326   -1.9379  -18.3952 H   0  0  0  0  0  0  0  0  0  0  0  0
   -4.6533    0.9661  -17.1941 H   0  0  0  0  0  0  0  0  0  0  0  0
   -3.1504    2.1099  -18.8363 H   0  0  0  0  0  0  0  0  0  0  0  0
   -2.3312    2.3512  -21.1531 H   0  0  0  0  0  0  0  0  0  0  0  0
   -3.2743    0.9381  -22.9676 H   0  0  0  0  0  0  0  0  0  0  0  0
   -5.0377   -0.6971  -22.4825 H   0  0  0  0  0  0  0  0  0  0  0  0
   -6.5073   -2.1307  -23.9827 H   0  0  0  0  0  0  0  0  0  0  0  0
   -7.7250   -3.1247  -24.8245 H   0  0  0  0  0  0  0  0  0  0  0  0
   -6.3907   -0.8139  -25.7564 H   0  0  0  0  0  0  0  0  0  0  0  0
   -7.8190   -0.1498  -26.5259 H   0  0  0  0  0  0  0  0  0  0  0  0
   -6.9518    2.4593  -26.6964 H   0  0  0  0  0  0  0  0  0  0  0  0
   -6.2168    3.0055  -22.7862 H   0  0  0  0  0  0  0  0  0  0  0  0
  -12.1586   -0.9954  -24.6516 H   0  0  0  0  0  0  0  0  0  0  0  0
  -13.6128   -2.5348  -23.3272 H   0  0  0  0  0  0  0  0  0  0  0  0
  -10.1544   -4.3384  -21.5958 H   0  0  0  0  0  0  0  0  0  0  0  0
  1  2  1  0
  2  3  1  0
  3  4  1  0
  4  5  1  0
  5  6  2  0
  6  7  1  0
  7  8  2  0
  8  9  1  0
  9 10  2  0
 10 11  1  0
 11 12  2  0
 12 13  1  0
 13 14  2  0
  4 15  1  0
 15 16  2  0
 15 17  1  0
 17 18  1  6
 18 19  1  0
 19 20  1  0
 20 21  1  0
 21 22  1  0
 22 23  2  0
 23 24  1  0
 24 25  1  0
 19 26  1  0
 26 27  2  0
 26 28  1  0
 28 29  2  0
 29 30  1  0
 30 31  2  0
 31 32  1  0
 31 33  1  0
 33 34  2  0
 17  2  1  0
 25 21  2  0
 34 28  1  0
 14  5  1  0
 34 17  1  0
 14  9  1  0
  1 35  1  0
  1 36  1  0
  1 37  1  0
  2 38  1  1
  3 39  1  0
  3 40  1  0
  6 41  1  0
  8 42  1  0
 10 43  1  0
 11 44  1  0
 12 45  1  0
 13 46  1  0
 18 47  1  0
 18 48  1  0
 20 49  1  0
 20 50  1  0
 22 51  1  0
 24 52  1  0
 29 53  1  0
 30 54  1  0
 33 55  1  0
M  END
>  <RMSD>  (52) 
0.05494504020247702

$$$$

     RDKit          3D

 58 62  0  0  0  0  0  0  0  0999 V2000
   -6.7767    2.5949  -23.1767 C   0  0  0  0  0  0  0  0  0  0  0  0
   -7.3771    1.3808  -23.7400 N   0  0  0  0  0  0  0  0  0  0  0  0
   -6.7922    1.0205  -25.0530 C   0  0  0  0  0  0  0  0  0  0  0  0
   -7.3068   -0.3298  -25.6116 C   0  0  0  0  0  0  0  0  0  0  0  0
   -8.1247   -1.1111  -24.7017 N   0  0  0  0  0  0  0  0  0  0  0  0
   -7.5523   -2.3078  -24.1184 C   0  0  0  0  0  0  0  0  0  0  0  0
   -8.1991   -2.6344  -22.7527 C   0  0  2  0  0  0  0  0  0  0  0  0
   -7.7723   -1.5036  -21.7892 C   0  0  0  0  0  0  0  0  0  0  0  0
   -8.1272   -0.3343  -21.8314 O   0  0  0  0  0  0  0  0  0  0  0  0
   -6.8120   -1.9876  -20.9444 N   0  0  0  0  0  0  0  0  0  0  0  0
   -6.1684   -1.1574  -19.9925 C   0  0  0  0  0  0  0  0  0  0  0  0
   -6.5437   -1.2440  -18.6760 C   0  0  0  0  0  0  0  0  0  0  0  0
   -6.0186   -0.4939  -17.6781 N   0  0  0  0  0  0  0  0  0  0  0  0
   -5.0777    0.3635  -18.0048 C   0  0  0  0  0  0  0  0  0  0  0  0
   -4.5858    0.5418  -19.3323 C   0  0  0  0  0  0  0  0  0  0  0  0
   -3.5634    1.4812  -19.6358 C   0  0  0  0  0  0  0  0  0  0  0  0
   -3.0970    1.6195  -20.9154 C   0  0  0  0  0  0  0  0  0  0  0  0
   -3.6289    0.8245  -21.9532 C   0  0  0  0  0  0  0  0  0  0  0  0
   -4.6290   -0.0816  -21.6905 C   0  0  0  0  0  0  0  0  0  0  0  0
   -5.1392   -0.2427  -20.3682 C   0  0  0  0  0  0  0  0  0  0  0  0
   -6.3400   -3.3053  -21.3245 C   0  0  0  0  0  0  0  0  0  0  0  0
   -7.5445   -3.8750  -22.0855 C   0  0  2  0  0  0  0  0  0  0  0  0
   -7.2196   -5.0411  -23.0150 C   0  0  0  0  0  0  0  0  0  0  0  0
   -9.7010   -2.6989  -22.9587 C   0  0  0  0  0  0  0  0  0  0  0  0
  -10.5353   -3.5884  -22.2661 C   0  0  0  0  0  0  0  0  0  0  0  0
  -11.9015   -3.5085  -22.4303 C   0  0  0  0  0  0  0  0  0  0  0  0
  -12.6881   -4.3432  -21.7279 F   0  0  0  0  0  0  0  0  0  0  0  0
  -12.5027   -2.5865  -23.2762 C   0  0  0  0  0  0  0  0  0  0  0  0
  -11.6863   -1.7275  -23.9854 C   0  0  0  0  0  0  0  0  0  0  0  0
  -10.2989   -1.7826  -23.8405 C   0  0  0  0  0  0  0  0  0  0  0  0
   -9.4608   -0.8353  -24.6470 C   0  0  0  0  0  0  0  0  0  0  0  0
   -9.9391    0.1514  -25.2067 O   0  0  0  0  0  0  0  0  0  0  0  0
   -6.9655    3.4509  -23.8365 H   0  0  0  0  0  0  0  0  0  0  0  0
   -7.2045    2.8041  -22.1960 H   0  0  0  0  0  0  0  0  0  0  0  0
   -5.6910    2.4716  -23.0638 H   0  0  0  0  0  0  0  0  0  0  0  0
   -8.3924    1.5208  -23.8795 H   0  0  0  0  0  0  0  0  0  0  0  0
   -7.2882    0.5972  -23.0729 H   0  0  0  0  0  0  0  0  0  0  0  0
   -7.0326    1.8088  -25.7777 H   0  0  0  0  0  0  0  0  0  0  0  0
   -5.6963    0.9970  -24.9812 H   0  0  0  0  0  0  0  0  0  0  0  0
   -7.8991   -0.1690  -26.5163 H   0  0  0  0  0  0  0  0  0  0  0  0
   -6.4612   -0.9616  -25.9078 H   0  0  0  0  0  0  0  0  0  0  0  0
   -6.4775   -2.1343  -23.9799 H   0  0  0  0  0  0  0  0  0  0  0  0
   -7.6962   -3.1532  -24.8019 H   0  0  0  0  0  0  0  0  0  0  0  0
   -7.3298   -1.9405  -18.3909 H   0  0  0  0  0  0  0  0  0  0  0  0
   -4.6443    0.9640  -17.2040 H   0  0  0  0  0  0  0  0  0  0  0  0
   -3.1655    2.0879  -18.8294 H   0  0  0  0  0  0  0  0  0  0  0  0
   -2.3220    2.3465  -21.1445 H   0  0  0  0  0  0  0  0  0  0  0  0
   -3.2624    0.9493  -22.9699 H   0  0  0  0  0  0  0  0  0  0  0  0
   -5.0161   -0.6926  -22.5004 H   0  0  0  0  0  0  0  0  0  0  0  0
   -5.4563   -3.2446  -21.9806 H   0  0  0  0  0  0  0  0  0  0  0  0
   -6.0649   -3.8873  -20.4433 H   0  0  0  0  0  0  0  0  0  0  0  0
   -8.2445   -4.2126  -21.3171 H   0  0  0  0  0  0  0  0  0  0  0  0
   -6.8592   -5.9072  -22.4540 H   0  0  0  0  0  0  0  0  0  0  0  0
   -6.4359   -4.7743  -23.7331 H   0  0  0  0  0  0  0  0  0  0  0  0
   -8.0988   -5.3570  -23.5889 H   0  0  0  0  0  0  0  0  0  0  0  0
  -10.1533   -4.3436  -21.5898 H   0  0  0  0  0  0  0  0  0  0  0  0
  -13.5839   -2.5611  -23.3512 H   0  0  0  0  0  0  0  0  0  0  0  0
  -12.1075   -0.9941  -24.6634 H   0  0  0  0  0  0  0  0  0  0  0  0
  1  2  1  0
  2  3  1  0
  3  4  1  0
  4  5  1  0
  5  6  1  0
  7  6  1  6
  7  8  1  0
  8  9  2  0
  8 10  1  0
 10 11  1  0
 11 12  2  0
 12 13  1  0
 13 14  2  0
 14 15  1  0
 15 16  2  0
 16 17  1  0
 17 18  2  0
 18 19  1  0
 19 20  2  0
 10 21  1  0
 21 22  1  0
 22 23  1  0
  7 24  1  0
 24 25  2  0
 25 26  1  0
 26 27  1  0
 26 28  2  0
 28 29  1  0
 29 30  2  0
 30 31  1  0
 31 32  2  0
 31  5  1  0
 22  7  1  0
 30 24  1  0
 20 11  1  0
 20 15  1  0
  1 33  1  0
  1 34  1  0
  1 35  1  0
  2 36  1  0
  2 37  1  0
  3 38  1  0
  3 39  1  0
  4 40  1  0
  4 41  1  0
  6 42  1  0
  6 43  1  0
 12 44  1  0
 14 45  1  0
 16 46  1  0
 17 47  1  0
 18 48  1  0
 19 49  1  0
 21 50  1  0
 21 51  1  0
 22 52  1  1
 23 53  1  0
 23 54  1  0
 23 55  1  0
 25 56  1  0
 28 57  1  0
 29 58  1  0
M  CHG  1   2   1
M  END
>  <RMSD>  (53) 
0.058825208780646336

$$$$

     RDKit          3D

 68 73  0  0  0  0  0  0  0  0999 V2000
   -6.7629    2.6529  -23.2139 C   0  0  0  0  0  0  0  0  0  0  0  0
   -7.3229    1.4775  -23.8543 N   0  0  0  0  0  0  0  0  0  0  0  0
   -6.8398    1.0553  -25.0417 C   0  0  0  0  0  0  0  0  0  0  0  0
   -6.0179    1.6880  -25.6944 O   0  0  0  0  0  0  0  0  0  0  0  0
   -7.3434   -0.2957  -25.5740 C   0  0  0  0  0  0  0  0  0  0  0  0
   -8.1592   -1.0976  -24.6869 N   0  0  0  0  0  0  0  0  0  0  0  0
   -7.5871   -2.3015  -24.1132 C   0  0  0  0  0  0  0  0  0  0  0  0
   -8.2325   -2.6385  -22.7459 C   0  0  2  0  0  0  0  0  0  0  0  0
   -7.8700   -1.5359  -21.7130 C   0  0  0  0  0  0  0  0  0  0  0  0
   -8.3961   -0.4484  -21.5708 O   0  0  0  0  0  0  0  0  0  0  0  0
   -6.8012   -1.9870  -20.9661 N   0  0  0  0  0  0  0  0  0  0  0  0
   -6.1748   -1.1552  -19.9992 C   0  0  0  0  0  0  0  0  0  0  0  0
   -6.5494   -1.2371  -18.6838 C   0  0  0  0  0  0  0  0  0  0  0  0
   -6.0128   -0.4954  -17.6791 N   0  0  0  0  0  0  0  0  0  0  0  0
   -5.0715    0.3593  -18.0041 C   0  0  0  0  0  0  0  0  0  0  0  0
   -4.5755    0.5445  -19.3287 C   0  0  0  0  0  0  0  0  0  0  0  0
   -3.5535    1.4846  -19.6335 C   0  0  0  0  0  0  0  0  0  0  0  0
   -3.0929    1.6176  -20.9152 C   0  0  0  0  0  0  0  0  0  0  0  0
   -3.6262    0.8171  -21.9522 C   0  0  0  0  0  0  0  0  0  0  0  0
   -4.6231   -0.0884  -21.6838 C   0  0  0  0  0  0  0  0  0  0  0  0
   -5.1347   -0.2414  -20.3650 C   0  0  0  0  0  0  0  0  0  0  0  0
   -6.3414   -3.3156  -21.3325 C   0  0  0  0  0  0  0  0  0  0  0  0
   -7.5649   -3.8772  -22.0774 C   0  0  2  0  0  0  0  0  0  0  0  0
   -7.2579   -5.0656  -23.0099 C   0  0  0  0  0  0  0  0  0  0  0  0
   -6.8688   -6.2899  -22.3485 N   0  0  0  0  0  0  0  0  0  0  0  0
   -5.5567   -6.5369  -21.9732 C   0  0  0  0  0  0  0  0  0  0  0  0
   -5.1052   -7.5562  -21.0885 C   0  0  0  0  0  0  0  0  0  0  0  0
   -3.7804   -7.5662  -20.9955 N   0  0  0  0  0  0  0  0  0  0  0  0
   -3.3578   -6.5919  -21.8013 N   0  0  0  0  0  0  0  0  0  0  0  0
   -1.9502   -6.2832  -21.9159 C   0  0  0  0  0  0  0  0  0  0  0  0
   -4.3880   -5.9396  -22.4105 C   0  0  0  0  0  0  0  0  0  0  0  0
   -9.7306   -2.7104  -22.9603 C   0  0  0  0  0  0  0  0  0  0  0  0
  -10.5574   -3.5861  -22.2462 C   0  0  0  0  0  0  0  0  0  0  0  0
  -11.9325   -3.5082  -22.3797 C   0  0  0  0  0  0  0  0  0  0  0  0
  -12.9410   -4.5725  -21.4359 Cl  0  0  0  0  0  0  0  0  0  0  0  0
  -12.5324   -2.5832  -23.2356 C   0  0  0  0  0  0  0  0  0  0  0  0
  -11.7196   -1.7344  -23.9636 C   0  0  0  0  0  0  0  0  0  0  0  0
  -10.3333   -1.7972  -23.8389 C   0  0  0  0  0  0  0  0  0  0  0  0
   -9.5047   -0.8509  -24.6602 C   0  0  0  0  0  0  0  0  0  0  0  0
   -9.9850    0.1068  -25.2558 O   0  0  0  0  0  0  0  0  0  0  0  0
   -5.6964    2.5042  -22.9966 H   0  0  0  0  0  0  0  0  0  0  0  0
   -6.8644    3.5421  -23.8471 H   0  0  0  0  0  0  0  0  0  0  0  0
   -7.2987    2.8056  -22.2726 H   0  0  0  0  0  0  0  0  0  0  0  0
   -8.0648    0.9768  -23.3846 H   0  0  0  0  0  0  0  0  0  0  0  0
   -6.4422   -0.8577  -25.8354 H   0  0  0  0  0  0  0  0  0  0  0  0
   -7.8923   -0.0956  -26.5008 H   0  0  0  0  0  0  0  0  0  0  0  0
   -6.5126   -2.1276  -23.9834 H   0  0  0  0  0  0  0  0  0  0  0  0
   -7.7253   -3.1492  -24.7999 H   0  0  0  0  0  0  0  0  0  0  0  0
   -7.3290   -1.9382  -18.3913 H   0  0  0  0  0  0  0  0  0  0  0  0
   -4.6579    0.9596  -17.1932 H   0  0  0  0  0  0  0  0  0  0  0  0
   -3.1639    2.0984  -18.8243 H   0  0  0  0  0  0  0  0  0  0  0  0
   -2.3277    2.3521  -21.1539 H   0  0  0  0  0  0  0  0  0  0  0  0
   -3.2743    0.9458  -22.9742 H   0  0  0  0  0  0  0  0  0  0  0  0
   -5.0351   -0.6986  -22.4828 H   0  0  0  0  0  0  0  0  0  0  0  0
   -5.4505   -3.2773  -21.9833 H   0  0  0  0  0  0  0  0  0  0  0  0
   -6.0591   -3.8942  -20.4480 H   0  0  0  0  0  0  0  0  0  0  0  0
   -8.2664   -4.2025  -21.3013 H   0  0  0  0  0  0  0  0  0  0  0  0
   -8.1542   -5.2800  -23.6051 H   0  0  0  0  0  0  0  0  0  0  0  0
   -6.4457   -4.7871  -23.7009 H   0  0  0  0  0  0  0  0  0  0  0  0
   -7.5753   -6.7669  -21.8035 H   0  0  0  0  0  0  0  0  0  0  0  0
   -5.6713   -8.2897  -20.5145 H   0  0  0  0  0  0  0  0  0  0  0  0
   -1.7498   -5.9804  -22.9478 H   0  0  0  0  0  0  0  0  0  0  0  0
   -1.3818   -7.1803  -21.6647 H   0  0  0  0  0  0  0  0  0  0  0  0
   -1.6649   -5.4765  -21.2311 H   0  0  0  0  0  0  0  0  0  0  0  0
   -4.1937   -5.1133  -23.0872 H   0  0  0  0  0  0  0  0  0  0  0  0
  -10.1362   -4.3318  -21.5828 H   0  0  0  0  0  0  0  0  0  0  0  0
  -13.6129   -2.5340  -23.3166 H   0  0  0  0  0  0  0  0  0  0  0  0
  -12.1251   -0.9925  -24.6422 H   0  0  0  0  0  0  0  0  0  0  0  0
  1  2  1  0
  2  3  1  0
  3  4  2  0
  3  5  1  0
  5  6  1  0
  6  7  1  0
  8  7  1  6
  8  9  1  0
  9 10  2  0
  9 11  1  0
 11 12  1  0
 12 13  2  0
 13 14  1  0
 14 15  2  0
 15 16  1  0
 16 17  2  0
 17 18  1  0
 18 19  2  0
 19 20  1  0
 20 21  2  0
 11 22  1  0
 22 23  1  0
 23 24  1  0
 24 25  1  0
 25 26  1  0
 26 27  1  0
 27 28  2  0
 28 29  1  0
 29 30  1  0
 29 31  1  0
  8 32  1  0
 32 33  2  0
 33 34  1  0
 34 35  1  0
 34 36  2  0
 36 37  1  0
 37 38  2  0
 38 39  1  0
 39 40  2  0
 39  6  1  0
 23  8  1  0
 31 26  2  0
 38 32  1  0
 21 12  1  0
 21 16  1  0
  1 41  1  0
  1 42  1  0
  1 43  1  0
  2 44  1  0
  5 45  1  0
  5 46  1  0
  7 47  1  0
  7 48  1  0
 13 49  1  0
 15 50  1  0
 17 51  1  0
 18 52  1  0
 19 53  1  0
 20 54  1  0
 22 55  1  0
 22 56  1  0
 23 57  1  1
 24 58  1  0
 24 59  1  0
 25 60  1  0
 27 61  1  0
 30 62  1  0
 30 63  1  0
 30 64  1  0
 31 65  1  0
 33 66  1  0
 36 67  1  0
 37 68  1  0
M  END
>  <RMSD>  (54) 
0.05934391251637603

$$$$

     RDKit          3D

 27 31  0  0  0  0  0  0  0  0999 V2000
    8.5617    0.8306   20.3113 O   0  0  0  0  0  0  0  0  0  0  0  0
    8.1104   -0.0661   20.9863 C   0  0  0  0  0  0  0  0  0  0  0  0
    8.7515   -0.8587   21.8955 N   0  0  0  0  0  0  0  0  0  0  0  0
    7.8549   -1.4423   22.8587 C   0  0  1  0  0  0  0  0  0  0  0  0
    8.1345   -2.8994   23.2689 C   0  0  0  0  0  0  0  0  0  0  0  0
    8.4200   -2.4419   24.7340 C   0  0  2  0  0  0  0  0  0  0  0  0
    7.5527   -3.0612   25.7876 C   0  0  0  0  0  0  0  0  0  0  0  0
    6.1577   -3.0377   25.6551 C   0  0  0  0  0  0  0  0  0  0  0  0
    5.3261   -3.6142   26.6089 C   0  0  0  0  0  0  0  0  0  0  0  0
    5.8831   -4.1796   27.7535 C   0  0  0  0  0  0  0  0  0  0  0  0
    7.2535   -4.1205   27.9509 C   0  0  0  0  0  0  0  0  0  0  0  0
    8.0785   -3.6344   26.9434 C   0  0  0  0  0  0  0  0  0  0  0  0
    9.8069   -3.8092   27.1405 Cl  0  0  0  0  0  0  0  0  0  0  0  0
    8.0360   -0.9807   24.3301 C   0  0  0  0  0  0  0  0  0  0  0  0
    6.5053   -1.1857   22.2197 C   0  0  0  0  0  0  0  0  0  0  0  0
    5.4284   -1.5199   22.6558 O   0  0  0  0  0  0  0  0  0  0  0  0
    6.7538   -0.4579   21.0540 N   0  0  0  0  0  0  0  0  0  0  0  0
    5.8358   -0.2296   19.9968 C   0  0  0  0  0  0  0  0  0  0  0  0
    6.0553   -0.8242   18.7792 C   0  0  0  0  0  0  0  0  0  0  0  0
    5.2529   -0.6580   17.7038 N   0  0  0  0  0  0  0  0  0  0  0  0
    4.1918    0.0944   17.8560 C   0  0  0  0  0  0  0  0  0  0  0  0
    3.8380    0.7504   19.0658 C   0  0  0  0  0  0  0  0  0  0  0  0
    2.6566    1.5278   19.1800 C   0  0  0  0  0  0  0  0  0  0  0  0
    2.3548    2.1634   20.3490 C   0  0  0  0  0  0  0  0  0  0  0  0
    3.2414    2.0781   21.4455 C   0  0  0  0  0  0  0  0  0  0  0  0
    4.3939    1.3377   21.3613 C   0  0  0  0  0  0  0  0  0  0  0  0
    4.7004    0.6194   20.1715 C   0  0  0  0  0  0  0  0  0  0  0  0
  1  2  2  0
  2  3  1  0
  4  3  1  0
  4  5  1  1
  5  6  1  0
  6  7  1  1
  7  8  2  0
  8  9  1  0
  9 10  2  0
 10 11  1  0
 11 12  2  0
 12 13  1  0
  6 14  1  0
  4 15  1  0
 15 16  2  0
 15 17  1  0
 17 18  1  0
 18 19  2  0
 19 20  1  0
 20 21  2  0
 21 22  1  0
 22 23  2  0
 23 24  1  0
 24 25  2  0
 25 26  1  0
 26 27  2  0
 17  2  1  0
 27 18  1  0
 14  4  1  0
 27 22  1  0
 12  7  1  0
M  END
>  <cnnaffinities>  (55) 
[5.70965, 5.57673, 5.69732, 5.54045]

>  <score>  (55) 
5.70965

>  <index>  (55) 
26

>  <Smiles>  (55) 
O=C1N([C@]2(C([C@](c3c(c(c(c(c3Cl)[H])[H])[H])[H])(C2([H])[H])[H])([H])[H])C(=O)N1c1c(nc(c2c(c(c(c(c12)[H])[H])[H])[H])[H])[H])[H]

>  <h>  (55) 
<NA>

>  <Training>  (55) 
True

>  <Success>  (55) 
True

>  <enamine_searched>  (55) 
False

>  <enamine_id>  (55) 
nan

$$$$

     RDKit          3D

 64 68  0  0  0  0  0  0  0  0999 V2000
   -6.7702    2.6297  -23.2057 C   0  0  0  0  0  0  0  0  0  0  0  0
   -7.3387    1.4522  -23.8359 N   0  0  0  0  0  0  0  0  0  0  0  0
   -6.8462    1.0268  -25.0215 C   0  0  0  0  0  0  0  0  0  0  0  0
   -6.0271    1.6567  -25.6737 O   0  0  0  0  0  0  0  0  0  0  0  0
   -7.3559   -0.3126  -25.5680 C   0  0  0  0  0  0  0  0  0  0  0  0
   -8.1658   -1.1271  -24.6902 N   0  0  0  0  0  0  0  0  0  0  0  0
   -7.5811   -2.3161  -24.0956 C   0  0  0  0  0  0  0  0  0  0  0  0
   -8.2198   -2.6472  -22.7233 C   0  0  2  0  0  0  0  0  0  0  0  0
   -7.8603   -1.5364  -21.7020 C   0  0  0  0  0  0  0  0  0  0  0  0
   -8.3831   -0.4476  -21.5662 O   0  0  0  0  0  0  0  0  0  0  0  0
   -6.7959   -1.9821  -20.9528 N   0  0  0  0  0  0  0  0  0  0  0  0
   -6.1662   -1.1552  -19.9919 C   0  0  0  0  0  0  0  0  0  0  0  0
   -6.5462   -1.2407  -18.6784 C   0  0  0  0  0  0  0  0  0  0  0  0
   -6.0194   -0.4931  -17.6751 N   0  0  0  0  0  0  0  0  0  0  0  0
   -5.0785    0.3624  -18.0038 C   0  0  0  0  0  0  0  0  0  0  0  0
   -4.5829    0.5433  -19.3292 C   0  0  0  0  0  0  0  0  0  0  0  0
   -3.5625    1.4823  -19.6346 C   0  0  0  0  0  0  0  0  0  0  0  0
   -3.0988    1.6174  -20.9145 C   0  0  0  0  0  0  0  0  0  0  0  0
   -3.6286    0.8204  -21.9539 C   0  0  0  0  0  0  0  0  0  0  0  0
   -4.6256   -0.0856  -21.6891 C   0  0  0  0  0  0  0  0  0  0  0  0
   -5.1333   -0.2427  -20.3668 C   0  0  0  0  0  0  0  0  0  0  0  0
   -6.3258   -3.3007  -21.3121 C   0  0  0  0  0  0  0  0  0  0  0  0
   -7.5407   -3.8784  -22.0580 C   0  0  2  0  0  0  0  0  0  0  0  0
   -7.2261   -5.0589  -22.9791 C   0  0  0  0  0  0  0  0  0  0  0  0
   -6.6821   -6.5149  -22.0896 S   0  0  0  0  0  0  0  0  0  0  0  0
   -7.0424   -7.6708  -22.8991 O   0  0  0  0  0  0  0  0  0  0  0  0
   -7.0846   -6.3872  -20.7001 O   0  0  0  0  0  0  0  0  0  0  0  0
   -5.0409   -6.3830  -22.0691 N   0  0  0  0  0  0  0  0  0  0  0  0
   -4.2191   -6.7930  -23.1882 C   0  0  0  0  0  0  0  0  0  0  0  0
   -9.7190   -2.7281  -22.9315 C   0  0  0  0  0  0  0  0  0  0  0  0
  -10.5540   -3.5983  -22.2178 C   0  0  0  0  0  0  0  0  0  0  0  0
  -11.9291   -3.5219  -22.3663 C   0  0  0  0  0  0  0  0  0  0  0  0
  -12.9431   -4.5940  -21.4367 Cl  0  0  0  0  0  0  0  0  0  0  0  0
  -12.5284   -2.5974  -23.2220 C   0  0  0  0  0  0  0  0  0  0  0  0
  -11.7110   -1.7504  -23.9437 C   0  0  0  0  0  0  0  0  0  0  0  0
  -10.3246   -1.8241  -23.8170 C   0  0  0  0  0  0  0  0  0  0  0  0
   -9.5140   -0.8937  -24.6657 C   0  0  0  0  0  0  0  0  0  0  0  0
  -10.0228    0.0318  -25.2833 O   0  0  0  0  0  0  0  0  0  0  0  0
   -5.7031    2.4821  -22.9856 H   0  0  0  0  0  0  0  0  0  0  0  0
   -7.3029    2.8054  -22.2661 H   0  0  0  0  0  0  0  0  0  0  0  0
   -6.8695    3.5158  -23.8442 H   0  0  0  0  0  0  0  0  0  0  0  0
   -7.9645    0.8741  -23.2850 H   0  0  0  0  0  0  0  0  0  0  0  0
   -7.9275   -0.0936  -26.4741 H   0  0  0  0  0  0  0  0  0  0  0  0
   -6.4644   -0.8720  -25.8672 H   0  0  0  0  0  0  0  0  0  0  0  0
   -7.7145   -3.1789  -24.7638 H   0  0  0  0  0  0  0  0  0  0  0  0
   -6.5056   -2.1439  -23.9716 H   0  0  0  0  0  0  0  0  0  0  0  0
   -7.3326   -1.9385  -18.3952 H   0  0  0  0  0  0  0  0  0  0  0  0
   -4.6435    0.9613  -17.2021 H   0  0  0  0  0  0  0  0  0  0  0  0
   -3.1675    2.0897  -18.8261 H   0  0  0  0  0  0  0  0  0  0  0  0
   -2.3262    2.3439  -21.1491 H   0  0  0  0  0  0  0  0  0  0  0  0
   -3.2694    0.9487  -22.9723 H   0  0  0  0  0  0  0  0  0  0  0  0
   -5.0266   -0.6938  -22.4952 H   0  0  0  0  0  0  0  0  0  0  0  0
   -5.4360   -3.2488  -21.9627 H   0  0  0  0  0  0  0  0  0  0  0  0
   -6.0564   -3.8711  -20.4186 H   0  0  0  0  0  0  0  0  0  0  0  0
   -8.2320   -4.2305  -21.2923 H   0  0  0  0  0  0  0  0  0  0  0  0
   -6.4390   -4.8157  -23.7041 H   0  0  0  0  0  0  0  0  0  0  0  0
   -8.1145   -5.3712  -23.5338 H   0  0  0  0  0  0  0  0  0  0  0  0
   -4.6828   -5.6975  -21.4183 H   0  0  0  0  0  0  0  0  0  0  0  0
   -4.5147   -7.7926  -23.4999 H   0  0  0  0  0  0  0  0  0  0  0  0
   -3.1787   -6.8242  -22.8635 H   0  0  0  0  0  0  0  0  0  0  0  0
   -4.2787   -6.1400  -24.0660 H   0  0  0  0  0  0  0  0  0  0  0  0
  -10.1537   -4.3442  -21.5407 H   0  0  0  0  0  0  0  0  0  0  0  0
  -13.6109   -2.5573  -23.3049 H   0  0  0  0  0  0  0  0  0  0  0  0
  -12.1230   -1.0122  -24.6227 H   0  0  0  0  0  0  0  0  0  0  0  0
  1  2  1  0
  2  3  1  0
  3  4  2  0
  3  5  1  0
  5  6  1  0
  6  7  1  0
  8  7  1  6
  8  9  1  0
  9 10  2  0
  9 11  1  0
 11 12  1  0
 12 13  2  0
 13 14  1  0
 14 15  2  0
 15 16  1  0
 16 17  2  0
 17 18  1  0
 18 19  2  0
 19 20  1  0
 20 21  2  0
 11 22  1  0
 22 23  1  0
 23 24  1  0
 24 25  1  0
 25 26  2  0
 25 27  2  0
 25 28  1  0
 28 29  1  0
  8 30  1  0
 30 31  2  0
 31 32  1  0
 32 33  1  0
 32 34  2  0
 34 35  1  0
 35 36  2  0
 36 37  1  0
 37 38  2  0
 37  6  1  0
 23  8  1  0
 36 30  1  0
 21 12  1  0
 21 16  1  0
  1 39  1  0
  1 40  1  0
  1 41  1  0
  2 42  1  0
  5 43  1  0
  5 44  1  0
  7 45  1  0
  7 46  1  0
 13 47  1  0
 15 48  1  0
 17 49  1  0
 18 50  1  0
 19 51  1  0
 20 52  1  0
 22 53  1  0
 22 54  1  0
 23 55  1  1
 24 56  1  0
 24 57  1  0
 28 58  1  0
 29 59  1  0
 29 60  1  0
 29 61  1  0
 31 62  1  0
 34 63  1  0
 35 64  1  0
M  END
>  <RMSD>  (56) 
0.059267466601798734

$$$$

     RDKit          3D

 46 48  0  0  0  0  0  0  0  0999 V2000
   10.4328   -2.3464   22.0959 C   0  0  0  0  0  0  0  0  0  0  0  0
   10.3786   -0.9365   22.6729 C   0  0  0  0  0  0  0  0  0  0  0  0
    9.1857   -0.7607   23.6190 C   0  0  1  0  0  0  0  0  0  0  0  0
    9.3344    0.4474   24.5413 C   0  0  0  0  0  0  0  0  0  0  0  0
    8.2369    0.4787   25.6100 C   0  0  1  0  0  0  0  0  0  0  0  0
    8.5612    1.6488   26.5190 C   0  0  0  0  0  0  0  0  0  0  0  0
    8.7119    2.8020   25.8359 F   0  0  0  0  0  0  0  0  0  0  0  0
    7.6615    1.8756   27.4889 F   0  0  0  0  0  0  0  0  0  0  0  0
    9.7408    1.3726   27.1255 F   0  0  0  0  0  0  0  0  0  0  0  0
    6.8720    0.4512   24.9203 C   0  0  0  0  0  0  0  0  0  0  0  0
    6.7964   -0.7980   24.0204 C   0  0  0  0  0  0  0  0  0  0  0  0
    7.8411   -0.7548   22.9930 N   0  0  0  0  0  0  0  0  0  0  0  0
    7.6111   -0.3799   21.6691 C   0  0  0  0  0  0  0  0  0  0  0  0
    8.3755    0.3100   21.0173 O   0  0  0  0  0  0  0  0  0  0  0  0
    6.3547   -0.9763   21.0023 C   0  0  0  0  0  0  0  0  0  0  0  0
    5.7740   -0.2051   19.8395 C   0  0  0  0  0  0  0  0  0  0  0  0
    6.2247   -0.4322   18.5656 C   0  0  0  0  0  0  0  0  0  0  0  0
    5.7647    0.1712   17.4361 N   0  0  0  0  0  0  0  0  0  0  0  0
    4.7854    1.0311   17.5853 C   0  0  0  0  0  0  0  0  0  0  0  0
    4.2002    1.3609   18.8377 C   0  0  0  0  0  0  0  0  0  0  0  0
    3.1452    2.3005   18.9471 C   0  0  0  0  0  0  0  0  0  0  0  0
    2.6221    2.6252   20.1701 C   0  0  0  0  0  0  0  0  0  0  0  0
    3.1343    2.0166   21.3377 C   0  0  0  0  0  0  0  0  0  0  0  0
    4.1448    1.0951   21.2567 C   0  0  0  0  0  0  0  0  0  0  0  0
    4.7127    0.7357   20.0050 C   0  0  0  0  0  0  0  0  0  0  0  0
   10.4873   -3.0862   22.8992 H   0  0  0  0  0  0  0  0  0  0  0  0
   11.3066   -2.5102   21.4573 H   0  0  0  0  0  0  0  0  0  0  0  0
    9.5347   -2.5687   21.5140 H   0  0  0  0  0  0  0  0  0  0  0  0
   10.3272   -0.1880   21.8865 H   0  0  0  0  0  0  0  0  0  0  0  0
   11.3008   -0.7466   23.2416 H   0  0  0  0  0  0  0  0  0  0  0  0
    9.2000   -1.6442   24.2842 H   0  0  0  0  0  0  0  0  0  0  0  0
   10.3132    0.4157   25.0295 H   0  0  0  0  0  0  0  0  0  0  0  0
    9.2789    1.3829   23.9697 H   0  0  0  0  0  0  0  0  0  0  0  0
    8.3171   -0.3931   26.2740 H   0  0  0  0  0  0  0  0  0  0  0  0
    6.0404    0.4552   25.6322 H   0  0  0  0  0  0  0  0  0  0  0  0
    6.7638    1.3357   24.2795 H   0  0  0  0  0  0  0  0  0  0  0  0
    5.8079   -0.8776   23.5654 H   0  0  0  0  0  0  0  0  0  0  0  0
    6.9280   -1.7197   24.6109 H   0  0  0  0  0  0  0  0  0  0  0  0
    6.6838   -1.9564   20.6286 H   0  0  0  0  0  0  0  0  0  0  0  0
    5.5773   -1.1877   21.7382 H   0  0  0  0  0  0  0  0  0  0  0  0
    7.0230   -1.1528   18.3893 H   0  0  0  0  0  0  0  0  0  0  0  0
    4.4052    1.5189   16.6844 H   0  0  0  0  0  0  0  0  0  0  0  0
    2.7697    2.7710   18.0413 H   0  0  0  0  0  0  0  0  0  0  0  0
    1.8285    3.3615   20.2550 H   0  0  0  0  0  0  0  0  0  0  0  0
    2.7249    2.2911   22.3077 H   0  0  0  0  0  0  0  0  0  0  0  0
    4.5241    0.6406   22.1695 H   0  0  0  0  0  0  0  0  0  0  0  0
  1  2  1  0
  2  3  1  0
  3  4  1  0
  4  5  1  0
  5  6  1  0
  6  7  1  0
  6  8  1  0
  6  9  1  0
  5 10  1  0
 10 11  1  0
 11 12  1  0
 12 13  1  0
 13 14  2  0
 13 15  1  0
 15 16  1  0
 16 17  2  0
 17 18  1  0
 18 19  2  0
 19 20  1  0
 20 21  2  0
 21 22  1  0
 22 23  2  0
 23 24  1  0
 24 25  2  0
 12  3  1  0
 25 16  1  0
 25 20  1  0
  1 26  1  0
  1 27  1  0
  1 28  1  0
  2 29  1  0
  2 30  1  0
  3 31  1  1
  4 32  1  0
  4 33  1  0
  5 34  1  1
 10 35  1  0
 10 36  1  0
 11 37  1  0
 11 38  1  0
 15 39  1  0
 15 40  1  0
 17 41  1  0
 19 42  1  0
 21 43  1  0
 22 44  1  0
 23 45  1  0
 24 46  1  0
M  END
>  <RMSD>  (57) 
0.03916018725887799

$$$$

     RDKit          3D

 70 75  0  0  0  0  0  0  0  0999 V2000
    6.2103    4.1019   22.3030 C   0  0  0  0  0  0  0  0  0  0  0  0
    6.8515    3.1936   23.2517 N   0  0  0  0  0  0  0  0  0  0  0  0
    6.0388    2.9666   24.4674 C   0  0  0  0  0  0  0  0  0  0  0  0
    6.6784    1.9183   25.3982 C   0  0  0  0  0  0  0  0  0  0  0  0
    7.5360    0.9788   24.6938 N   0  0  0  0  0  0  0  0  0  0  0  0
    7.0030   -0.3023   24.2828 C   0  0  0  0  0  0  0  0  0  0  0  0
    7.6919   -0.8766   23.0149 C   0  0  2  0  0  0  0  0  0  0  0  0
    7.3199   -0.0223   21.7808 C   0  0  0  0  0  0  0  0  0  0  0  0
    7.6488    1.1473   21.5898 O   0  0  0  0  0  0  0  0  0  0  0  0
    6.5019   -0.7266   20.9439 N   0  0  0  0  0  0  0  0  0  0  0  0
    5.8660   -0.0904   19.8290 C   0  0  0  0  0  0  0  0  0  0  0  0
    6.3008   -0.3505   18.5561 C   0  0  0  0  0  0  0  0  0  0  0  0
    5.7753    0.1975   17.4303 N   0  0  0  0  0  0  0  0  0  0  0  0
    4.7684    1.0300   17.5732 C   0  0  0  0  0  0  0  0  0  0  0  0
    4.2082    1.3876   18.8329 C   0  0  0  0  0  0  0  0  0  0  0  0
    3.1117    2.2873   18.9398 C   0  0  0  0  0  0  0  0  0  0  0  0
    2.5909    2.6033   20.1665 C   0  0  0  0  0  0  0  0  0  0  0  0
    3.1523    2.0456   21.3364 C   0  0  0  0  0  0  0  0  0  0  0  0
    4.2214    1.1893   21.2622 C   0  0  0  0  0  0  0  0  0  0  0  0
    4.7771    0.8255   20.0018 C   0  0  0  0  0  0  0  0  0  0  0  0
    6.0470   -1.9783   21.5316 C   0  0  0  0  0  0  0  0  0  0  0  0
    7.0692   -2.2642   22.6585 C   0  0  2  0  0  0  0  0  0  0  0  0
    6.4326   -3.0338   23.8449 C   0  0  0  0  0  0  0  0  0  0  0  0
    5.9296   -4.3029   23.4635 O   0  0  0  0  0  0  0  0  0  0  0  0
    6.7619   -5.3906   23.7967 C   0  0  0  0  0  0  0  0  0  0  0  0
    6.5293   -6.4755   22.7828 C   0  0  0  0  0  0  0  0  0  0  0  0
    7.3885   -7.5133   23.0975 F   0  0  0  0  0  0  0  0  0  0  0  0
    5.1171   -6.9733   22.4666 C   0  0  0  0  0  0  0  0  0  0  0  0
    5.2767   -6.6189   21.0812 O   0  0  0  0  0  0  0  0  0  0  0  0
    6.5631   -6.0276   21.3256 C   0  0  0  0  0  0  0  0  0  0  0  0
    9.1969   -0.8098   23.2473 C   0  0  0  0  0  0  0  0  0  0  0  0
   10.1023   -1.7361   22.7162 C   0  0  0  0  0  0  0  0  0  0  0  0
   11.4618   -1.5644   22.9198 C   0  0  0  0  0  0  0  0  0  0  0  0
   12.5698   -2.7421   22.2787 Cl  0  0  0  0  0  0  0  0  0  0  0  0
   11.9777   -0.4652   23.6038 C   0  0  0  0  0  0  0  0  0  0  0  0
   11.0944    0.4768   24.0889 C   0  0  0  0  0  0  0  0  0  0  0  0
    9.7225    0.3080   23.9206 C   0  0  0  0  0  0  0  0  0  0  0  0
    8.8174    1.3583   24.4684 C   0  0  0  0  0  0  0  0  0  0  0  0
    9.1946    2.5135   24.6837 O   0  0  0  0  0  0  0  0  0  0  0  0
    5.1781    3.7841   22.1308 H   0  0  0  0  0  0  0  0  0  0  0  0
    6.1927    5.1204   22.6999 H   0  0  0  0  0  0  0  0  0  0  0  0
    6.7289    4.0834   21.3442 H   0  0  0  0  0  0  0  0  0  0  0  0
    7.7687    3.5504   23.5590 H   0  0  0  0  0  0  0  0  0  0  0  0
    7.0502    2.2979   22.7733 H   0  0  0  0  0  0  0  0  0  0  0  0
    5.9251    3.9175   25.0034 H   0  0  0  0  0  0  0  0  0  0  0  0
    5.0297    2.6530   24.1682 H   0  0  0  0  0  0  0  0  0  0  0  0
    7.2983    2.4052   26.1560 H   0  0  0  0  0  0  0  0  0  0  0  0
    5.9023    1.3524   25.9251 H   0  0  0  0  0  0  0  0  0  0  0  0
    7.1325   -1.0141   25.1080 H   0  0  0  0  0  0  0  0  0  0  0  0
    5.9315   -0.1769   24.0750 H   0  0  0  0  0  0  0  0  0  0  0  0
    7.1382   -1.0285   18.3909 H   0  0  0  0  0  0  0  0  0  0  0  0
    4.3491    1.4711   16.6666 H   0  0  0  0  0  0  0  0  0  0  0  0
    2.7040    2.7219   18.0316 H   0  0  0  0  0  0  0  0  0  0  0  0
    1.7562    3.2929   20.2500 H   0  0  0  0  0  0  0  0  0  0  0  0
    2.7522    2.3236   22.3085 H   0  0  0  0  0  0  0  0  0  0  0  0
    4.6631    0.7881   22.1715 H   0  0  0  0  0  0  0  0  0  0  0  0
    5.0391   -1.8878   21.9672 H   0  0  0  0  0  0  0  0  0  0  0  0
    6.0217   -2.7616   20.7698 H   0  0  0  0  0  0  0  0  0  0  0  0
    7.8596   -2.8884   22.2329 H   0  0  0  0  0  0  0  0  0  0  0  0
    7.1610   -3.1610   24.6630 H   0  0  0  0  0  0  0  0  0  0  0  0
    5.5750   -2.4668   24.2378 H   0  0  0  0  0  0  0  0  0  0  0  0
    6.5713   -5.7828   24.8096 H   0  0  0  0  0  0  0  0  0  0  0  0
    7.8117   -5.0715   23.7439 H   0  0  0  0  0  0  0  0  0  0  0  0
    4.2992   -6.4174   22.9470 H   0  0  0  0  0  0  0  0  0  0  0  0
    5.0004   -8.0562   22.6042 H   0  0  0  0  0  0  0  0  0  0  0  0
    7.3864   -6.4515   20.7406 H   0  0  0  0  0  0  0  0  0  0  0  0
    6.5232   -4.9349   21.1990 H   0  0  0  0  0  0  0  0  0  0  0  0
    9.7740   -2.5736   22.1085 H   0  0  0  0  0  0  0  0  0  0  0  0
   13.0493   -0.3438   23.7197 H   0  0  0  0  0  0  0  0  0  0  0  0
   11.4459    1.3644   24.6026 H   0  0  0  0  0  0  0  0  0  0  0  0
  1  2  1  0
  2  3  1  0
  3  4  1  0
  4  5  1  0
  5  6  1  0
  7  6  1  1
  7  8  1  0
  8  9  2  0
  8 10  1  0
 10 11  1  0
 11 12  2  0
 12 13  1  0
 13 14  2  0
 14 15  1  0
 15 16  2  0
 16 17  1  0
 17 18  2  0
 18 19  1  0
 19 20  2  0
 10 21  1  0
 21 22  1  0
 22 23  1  0
 23 24  1  0
 24 25  1  0
 25 26  1  0
 26 27  1  0
 26 28  1  0
 28 29  1  0
 29 30  1  0
  7 31  1  0
 31 32  2  0
 32 33  1  0
 33 34  1  0
 33 35  2  0
 35 36  1  0
 36 37  2  0
 37 38  1  0
 38 39  2  0
 38  5  1  0
 22  7  1  0
 30 26  1  0
 37 31  1  0
 20 11  1  0
 20 15  1  0
  1 40  1  0
  1 41  1  0
  1 42  1  0
  2 43  1  0
  2 44  1  0
  3 45  1  0
  3 46  1  0
  4 47  1  0
  4 48  1  0
  6 49  1  0
  6 50  1  0
 12 51  1  0
 14 52  1  0
 16 53  1  0
 17 54  1  0
 18 55  1  0
 19 56  1  0
 21 57  1  0
 21 58  1  0
 22 59  1  6
 23 60  1  0
 23 61  1  0
 25 62  1  0
 25 63  1  0
 28 64  1  0
 28 65  1  0
 30 66  1  0
 30 67  1  0
 32 68  1  0
 35 69  1  0
 36 70  1  0
M  CHG  1   2   1
M  END
>  <RMSD>  (58) 
0.19148373548171335

$$$$

     RDKit          3D

 67 72  0  0  0  0  0  0  0  0999 V2000
    6.1309    4.2098   22.3192 C   0  0  0  0  0  0  0  0  0  0  0  0
    6.7836    3.1529   23.1008 N   0  0  0  0  0  0  0  0  0  0  0  0
    6.1800    2.9804   24.4400 C   0  0  0  0  0  0  0  0  0  0  0  0
    6.7577    1.7812   25.2320 C   0  0  0  0  0  0  0  0  0  0  0  0
    7.6536    0.9135   24.4905 N   0  0  0  0  0  0  0  0  0  0  0  0
    7.1774   -0.4017   24.1152 C   0  0  0  0  0  0  0  0  0  0  0  0
    7.8879   -0.9185   22.8437 C   0  0  2  0  0  0  0  0  0  0  0  0
    7.4257    0.0081   21.6933 C   0  0  0  0  0  0  0  0  0  0  0  0
    7.7146    1.1884   21.5497 O   0  0  0  0  0  0  0  0  0  0  0  0
    6.5292   -0.6753   20.9173 N   0  0  0  0  0  0  0  0  0  0  0  0
    5.8735   -0.0655   19.8170 C   0  0  0  0  0  0  0  0  0  0  0  0
    6.3041   -0.3483   18.5465 C   0  0  0  0  0  0  0  0  0  0  0  0
    5.7697    0.1840   17.4207 N   0  0  0  0  0  0  0  0  0  0  0  0
    4.7660    1.0171   17.5721 C   0  0  0  0  0  0  0  0  0  0  0  0
    4.2146    1.3868   18.8343 C   0  0  0  0  0  0  0  0  0  0  0  0
    3.1253    2.2921   18.9469 C   0  0  0  0  0  0  0  0  0  0  0  0
    2.6050    2.6139   20.1704 C   0  0  0  0  0  0  0  0  0  0  0  0
    3.1475    2.0455   21.3428 C   0  0  0  0  0  0  0  0  0  0  0  0
    4.2110    1.1779   21.2646 C   0  0  0  0  0  0  0  0  0  0  0  0
    4.7781    0.8293   20.0042 C   0  0  0  0  0  0  0  0  0  0  0  0
    6.1261   -1.9455   21.4944 C   0  0  0  0  0  0  0  0  0  0  0  0
    7.3359   -2.2962   22.3718 C   0  0  2  0  0  0  0  0  0  0  0  0
    7.0491   -3.3407   23.4684 C   0  0  0  0  0  0  0  0  0  0  0  0
    6.7302   -4.6529   22.9401 N   0  0  0  0  0  0  0  0  0  0  0  0
    5.4852   -5.0910   22.6565 C   0  0  0  0  0  0  0  0  0  0  0  0
    4.4174   -4.3558   23.0300 N   0  0  0  0  0  0  0  0  0  0  0  0
    3.2518   -4.9023   22.7071 C   0  0  0  0  0  0  0  0  0  0  0  0
    3.0548   -6.0383   22.0394 N   0  0  0  0  0  0  0  0  0  0  0  0
    4.1950   -6.6733   21.7385 C   0  0  0  0  0  0  0  0  0  0  0  0
    5.4184   -6.2788   22.0131 N   0  0  0  0  0  0  0  0  0  0  0  0
    9.3849   -0.8387   23.0919 C   0  0  0  0  0  0  0  0  0  0  0  0
   10.3001   -1.7689   22.5793 C   0  0  0  0  0  0  0  0  0  0  0  0
   11.6586   -1.5740   22.7441 C   0  0  0  0  0  0  0  0  0  0  0  0
   12.7742   -2.7108   22.0387 Cl  0  0  0  0  0  0  0  0  0  0  0  0
   12.1619   -0.4783   23.4408 C   0  0  0  0  0  0  0  0  0  0  0  0
   11.2688    0.4267   23.9790 C   0  0  0  0  0  0  0  0  0  0  0  0
    9.8945    0.2524   23.8158 C   0  0  0  0  0  0  0  0  0  0  0  0
    8.9716    1.2666   24.4249 C   0  0  0  0  0  0  0  0  0  0  0  0
    9.3655    2.3628   24.8170 O   0  0  0  0  0  0  0  0  0  0  0  0
    6.5811    4.2788   21.3283 H   0  0  0  0  0  0  0  0  0  0  0  0
    6.2440    5.1734   22.8282 H   0  0  0  0  0  0  0  0  0  0  0  0
    5.0614    3.9958   22.2041 H   0  0  0  0  0  0  0  0  0  0  0  0
    6.7739    2.2637   22.5774 H   0  0  0  0  0  0  0  0  0  0  0  0
    7.7821    3.3786   23.2362 H   0  0  0  0  0  0  0  0  0  0  0  0
    6.3423    3.8969   25.0218 H   0  0  0  0  0  0  0  0  0  0  0  0
    5.0907    2.8747   24.3479 H   0  0  0  0  0  0  0  0  0  0  0  0
    5.9416    1.1574   25.6146 H   0  0  0  0  0  0  0  0  0  0  0  0
    7.3023    2.1346   26.1105 H   0  0  0  0  0  0  0  0  0  0  0  0
    7.3499   -1.0988   24.9430 H   0  0  0  0  0  0  0  0  0  0  0  0
    6.1001   -0.3243   23.9215 H   0  0  0  0  0  0  0  0  0  0  0  0
    7.1413   -1.0299   18.4079 H   0  0  0  0  0  0  0  0  0  0  0  0
    4.3275    1.4420   16.6677 H   0  0  0  0  0  0  0  0  0  0  0  0
    2.7204    2.7242   18.0379 H   0  0  0  0  0  0  0  0  0  0  0  0
    1.7788    3.3155   20.2514 H   0  0  0  0  0  0  0  0  0  0  0  0
    2.7376    2.3167   22.3128 H   0  0  0  0  0  0  0  0  0  0  0  0
    4.6071    0.7416   22.1767 H   0  0  0  0  0  0  0  0  0  0  0  0
    5.2159   -1.8339   22.1028 H   0  0  0  0  0  0  0  0  0  0  0  0
    5.9136   -2.6811   20.7169 H   0  0  0  0  0  0  0  0  0  0  0  0
    8.0814   -2.7110   21.6900 H   0  0  0  0  0  0  0  0  0  0  0  0
    6.1874   -3.0193   24.0585 H   0  0  0  0  0  0  0  0  0  0  0  0
    7.9169   -3.4244   24.1423 H   0  0  0  0  0  0  0  0  0  0  0  0
    7.4750   -5.2458   22.6098 H   0  0  0  0  0  0  0  0  0  0  0  0
    2.3534   -4.3678   23.0250 H   0  0  0  0  0  0  0  0  0  0  0  0
    4.1305   -7.6205   21.2036 H   0  0  0  0  0  0  0  0  0  0  0  0
    9.9791   -2.6500   22.0382 H   0  0  0  0  0  0  0  0  0  0  0  0
   13.2332   -0.3488   23.5472 H   0  0  0  0  0  0  0  0  0  0  0  0
   11.6181    1.2903   24.5337 H   0  0  0  0  0  0  0  0  0  0  0  0
  1  2  1  0
  2  3  1  0
  3  4  1  0
  4  5  1  0
  5  6  1  0
  7  6  1  1
  7  8  1  0
  8  9  2  0
  8 10  1  0
 10 11  1  0
 11 12  2  0
 12 13  1  0
 13 14  2  0
 14 15  1  0
 15 16  2  0
 16 17  1  0
 17 18  2  0
 18 19  1  0
 19 20  2  0
 10 21  1  0
 21 22  1  0
 22 23  1  0
 23 24  1  0
 24 25  1  0
 25 26  2  0
 26 27  1  0
 27 28  2  0
 28 29  1  0
 29 30  2  0
  7 31  1  0
 31 32  2  0
 32 33  1  0
 33 34  1  0
 33 35  2  0
 35 36  1  0
 36 37  2  0
 37 38  1  0
 38 39  2  0
 38  5  1  0
 22  7  1  0
 30 25  1  0
 37 31  1  0
 20 11  1  0
 20 15  1  0
  1 40  1  0
  1 41  1  0
  1 42  1  0
  2 43  1  0
  2 44  1  0
  3 45  1  0
  3 46  1  0
  4 47  1  0
  4 48  1  0
  6 49  1  0
  6 50  1  0
 12 51  1  0
 14 52  1  0
 16 53  1  0
 17 54  1  0
 18 55  1  0
 19 56  1  0
 21 57  1  0
 21 58  1  0
 22 59  1  6
 23 60  1  0
 23 61  1  0
 24 62  1  0
 27 63  1  0
 29 64  1  0
 32 65  1  0
 35 66  1  0
 36 67  1  0
M  CHG  1   2   1
M  END
>  <RMSD>  (59) 
0.1751295500053264

$$$$

     RDKit          3D

 66 71  0  0  0  0  0  0  0  0999 V2000
   -6.7620    2.6518  -23.2218 C   0  0  0  0  0  0  0  0  0  0  0  0
   -7.3091    1.4753  -23.8589 N   0  0  0  0  0  0  0  0  0  0  0  0
   -6.8314    1.0648  -25.0525 C   0  0  0  0  0  0  0  0  0  0  0  0
   -6.0136    1.6978  -25.7057 O   0  0  0  0  0  0  0  0  0  0  0  0
   -7.3261   -0.2862  -25.5804 C   0  0  0  0  0  0  0  0  0  0  0  0
   -8.1442   -1.0827  -24.6896 N   0  0  0  0  0  0  0  0  0  0  0  0
   -7.5812   -2.2956  -24.1213 C   0  0  0  0  0  0  0  0  0  0  0  0
   -8.2257   -2.6436  -22.7561 C   0  0  2  0  0  0  0  0  0  0  0  0
   -7.8758   -1.5396  -21.7268 C   0  0  0  0  0  0  0  0  0  0  0  0
   -8.4065   -0.4530  -21.5942 O   0  0  0  0  0  0  0  0  0  0  0  0
   -6.8193   -1.9872  -20.9653 N   0  0  0  0  0  0  0  0  0  0  0  0
   -6.1794   -1.1543  -20.0061 C   0  0  0  0  0  0  0  0  0  0  0  0
   -6.5467   -1.2422  -18.6879 C   0  0  0  0  0  0  0  0  0  0  0  0
   -6.0137   -0.5016  -17.6834 N   0  0  0  0  0  0  0  0  0  0  0  0
   -5.0743    0.3599  -18.0004 C   0  0  0  0  0  0  0  0  0  0  0  0
   -4.5714    0.5405  -19.3227 C   0  0  0  0  0  0  0  0  0  0  0  0
   -3.5532    1.4880  -19.6290 C   0  0  0  0  0  0  0  0  0  0  0  0
   -3.0969    1.6221  -20.9137 C   0  0  0  0  0  0  0  0  0  0  0  0
   -3.6250    0.8178  -21.9515 C   0  0  0  0  0  0  0  0  0  0  0  0
   -4.6193   -0.0908  -21.6832 C   0  0  0  0  0  0  0  0  0  0  0  0
   -5.1280   -0.2478  -20.3629 C   0  0  0  0  0  0  0  0  0  0  0  0
   -6.3435   -3.3052  -21.3528 C   0  0  0  0  0  0  0  0  0  0  0  0
   -7.5625   -3.8855  -22.0897 C   0  0  2  0  0  0  0  0  0  0  0  0
   -7.3449   -5.1395  -22.9780 C   0  0  0  0  0  0  0  0  0  0  0  0
   -5.9557   -5.3542  -23.5366 C   0  0  0  0  0  0  0  0  0  0  0  0
   -4.9452   -5.8392  -22.7009 C   0  0  0  0  0  0  0  0  0  0  0  0
   -3.6472   -6.0151  -23.1636 C   0  0  0  0  0  0  0  0  0  0  0  0
   -3.3307   -5.7139  -24.4832 C   0  0  0  0  0  0  0  0  0  0  0  0
   -4.3284   -5.2479  -25.3327 C   0  0  0  0  0  0  0  0  0  0  0  0
   -5.6280   -5.0737  -24.8628 C   0  0  0  0  0  0  0  0  0  0  0  0
   -9.7214   -2.7153  -22.9792 C   0  0  0  0  0  0  0  0  0  0  0  0
  -10.5483   -3.5911  -22.2654 C   0  0  0  0  0  0  0  0  0  0  0  0
  -11.9233   -3.5115  -22.4010 C   0  0  0  0  0  0  0  0  0  0  0  0
  -12.9237   -4.5739  -21.4497 Cl  0  0  0  0  0  0  0  0  0  0  0  0
  -12.5228   -2.5850  -23.2570 C   0  0  0  0  0  0  0  0  0  0  0  0
  -11.7085   -1.7321  -23.9820 C   0  0  0  0  0  0  0  0  0  0  0  0
  -10.3194   -1.7921  -23.8539 C   0  0  0  0  0  0  0  0  0  0  0  0
   -9.4896   -0.8359  -24.6642 C   0  0  0  0  0  0  0  0  0  0  0  0
   -9.9712    0.1242  -25.2514 O   0  0  0  0  0  0  0  0  0  0  0  0
   -5.6990    2.5101  -22.9997 H   0  0  0  0  0  0  0  0  0  0  0  0
   -7.2917    2.8053  -22.2804 H   0  0  0  0  0  0  0  0  0  0  0  0
   -6.8650    3.5427  -23.8493 H   0  0  0  0  0  0  0  0  0  0  0  0
   -8.1011    1.0183  -23.4273 H   0  0  0  0  0  0  0  0  0  0  0  0
   -6.4308   -0.8616  -25.8339 H   0  0  0  0  0  0  0  0  0  0  0  0
   -7.8627   -0.1090  -26.5192 H   0  0  0  0  0  0  0  0  0  0  0  0
   -7.7271   -3.1346  -24.8147 H   0  0  0  0  0  0  0  0  0  0  0  0
   -6.5064   -2.1464  -23.9926 H   0  0  0  0  0  0  0  0  0  0  0  0
   -7.3284   -1.9372  -18.3911 H   0  0  0  0  0  0  0  0  0  0  0  0
   -4.6572    0.9646  -17.1924 H   0  0  0  0  0  0  0  0  0  0  0  0
   -3.1551    2.1097  -18.8276 H   0  0  0  0  0  0  0  0  0  0  0  0
   -2.3289    2.3532  -21.1553 H   0  0  0  0  0  0  0  0  0  0  0  0
   -3.2735    0.9434  -22.9747 H   0  0  0  0  0  0  0  0  0  0  0  0
   -5.0335   -0.7003  -22.4830 H   0  0  0  0  0  0  0  0  0  0  0  0
   -5.4557   -3.2601  -22.0056 H   0  0  0  0  0  0  0  0  0  0  0  0
   -6.0709   -3.8816  -20.4664 H   0  0  0  0  0  0  0  0  0  0  0  0
   -8.2497   -4.1751  -21.2891 H   0  0  0  0  0  0  0  0  0  0  0  0
   -7.6121   -6.0286  -22.3924 H   0  0  0  0  0  0  0  0  0  0  0  0
   -8.0731   -5.1157  -23.7971 H   0  0  0  0  0  0  0  0  0  0  0  0
   -5.1845   -6.0547  -21.6625 H   0  0  0  0  0  0  0  0  0  0  0  0
   -2.8800   -6.3777  -22.4881 H   0  0  0  0  0  0  0  0  0  0  0  0
   -2.3185   -5.8537  -24.8487 H   0  0  0  0  0  0  0  0  0  0  0  0
   -4.0999   -5.0259  -26.3705 H   0  0  0  0  0  0  0  0  0  0  0  0
   -6.3996   -4.7205  -25.5430 H   0  0  0  0  0  0  0  0  0  0  0  0
  -10.1252   -4.3421  -21.6062 H   0  0  0  0  0  0  0  0  0  0  0  0
  -13.6064   -2.5364  -23.3322 H   0  0  0  0  0  0  0  0  0  0  0  0
  -12.1374   -1.0005  -24.6596 H   0  0  0  0  0  0  0  0  0  0  0  0
  1  2  1  0
  2  3  1  0
  3  4  2  0
  3  5  1  0
  5  6  1  0
  6  7  1  0
  8  7  1  6
  8  9  1  0
  9 10  2  0
  9 11  1  0
 11 12  1  0
 12 13  2  0
 13 14  1  0
 14 15  2  0
 15 16  1  0
 16 17  2  0
 17 18  1  0
 18 19  2  0
 19 20  1  0
 20 21  2  0
 11 22  1  0
 22 23  1  0
 23 24  1  0
 24 25  1  0
 25 26  2  0
 26 27  1  0
 27 28  2  0
 28 29  1  0
 29 30  2  0
  8 31  1  0
 31 32  2  0
 32 33  1  0
 33 34  1  0
 33 35  2  0
 35 36  1  0
 36 37  2  0
 37 38  1  0
 38 39  2  0
 38  6  1  0
 23  8  1  0
 30 25  1  0
 37 31  1  0
 21 12  1  0
 21 16  1  0
  1 40  1  0
  1 41  1  0
  1 42  1  0
  2 43  1  0
  5 44  1  0
  5 45  1  0
  7 46  1  0
  7 47  1  0
 13 48  1  0
 15 49  1  0
 17 50  1  0
 18 51  1  0
 19 52  1  0
 20 53  1  0
 22 54  1  0
 22 55  1  0
 23 56  1  1
 24 57  1  0
 24 58  1  0
 26 59  1  0
 27 60  1  0
 28 61  1  0
 29 62  1  0
 30 63  1  0
 32 64  1  0
 35 65  1  0
 36 66  1  0
M  END
>  <RMSD>  (60) 
0.057881857830002374

$$$$

     RDKit          3D

 64 70  0  0  0  0  0  0  0  0999 V2000
    9.6656    1.6412   25.6187 O   0  0  0  0  0  0  0  0  0  0  0  0
    9.1963    0.8643   24.8029 C   0  0  0  0  0  0  0  0  0  0  0  0
   10.0417   -0.0775   24.0037 C   0  0  0  0  0  0  0  0  0  0  0  0
   11.4206   -0.0069   24.1909 C   0  0  0  0  0  0  0  0  0  0  0  0
   12.2733   -0.7275   23.3797 C   0  0  0  0  0  0  0  0  0  0  0  0
   11.7185   -1.5203   22.3767 C   0  0  0  0  0  0  0  0  0  0  0  0
   12.7671   -2.4257   21.3260 Cl  0  0  0  0  0  0  0  0  0  0  0  0
   10.3531   -1.6083   22.1849 C   0  0  0  0  0  0  0  0  0  0  0  0
    9.4791   -0.9048   23.0202 C   0  0  0  0  0  0  0  0  0  0  0  0
    7.9906   -0.9371   22.7454 C   0  0  1  0  0  0  0  0  0  0  0  0
    7.2518   -0.3832   23.9898 C   0  0  0  0  0  0  0  0  0  0  0  0
    7.8646    0.8450   24.4675 N   0  0  0  0  0  0  0  0  0  0  0  0
    7.1035    2.0653   24.6359 C   0  0  0  0  0  0  0  0  0  0  0  0
    7.2849    3.0826   23.5370 C   0  0  0  0  0  0  0  0  0  0  0  0
    8.0701    4.1043   23.5353 N   0  0  0  0  0  0  0  0  0  0  0  0
    7.7808    4.8351   22.3881 N   0  0  0  0  0  0  0  0  0  0  0  0
    6.8279    4.2010   21.8043 C   0  0  0  0  0  0  0  0  0  0  0  0
    6.4659    3.0706   22.4592 O   0  0  0  0  0  0  0  0  0  0  0  0
    7.6183   -0.0819   21.5108 C   0  0  0  0  0  0  0  0  0  0  0  0
    8.1620    0.9197   21.0995 O   0  0  0  0  0  0  0  0  0  0  0  0
    6.5105   -0.6658   20.9301 N   0  0  0  0  0  0  0  0  0  0  0  0
    5.8613   -0.0804   19.8175 C   0  0  0  0  0  0  0  0  0  0  0  0
    6.3070   -0.3433   18.5484 C   0  0  0  0  0  0  0  0  0  0  0  0
    5.7744    0.1903   17.4185 N   0  0  0  0  0  0  0  0  0  0  0  0
    4.7647    1.0151   17.5706 C   0  0  0  0  0  0  0  0  0  0  0  0
    4.2076    1.3805   18.8316 C   0  0  0  0  0  0  0  0  0  0  0  0
    3.1250    2.2930   18.9447 C   0  0  0  0  0  0  0  0  0  0  0  0
    2.6157    2.6192   20.1701 C   0  0  0  0  0  0  0  0  0  0  0  0
    3.1587    2.0514   21.3427 C   0  0  0  0  0  0  0  0  0  0  0  0
    4.2068    1.1673   21.2634 C   0  0  0  0  0  0  0  0  0  0  0  0
    4.7596    0.8123   20.0008 C   0  0  0  0  0  0  0  0  0  0  0  0
    6.1397   -1.9382   21.5109 C   0  0  0  0  0  0  0  0  0  0  0  0
    7.4002   -2.3098   22.3072 C   0  0  2  0  0  0  0  0  0  0  0  0
    7.1755   -3.3347   23.4275 C   0  0  0  0  0  0  0  0  0  0  0  0
    6.9040   -4.6785   22.9672 N   0  0  0  0  0  0  0  0  0  0  0  0
    5.7114   -5.1067   22.4740 C   0  0  0  0  0  0  0  0  0  0  0  0
    4.4715   -4.5089   22.7652 C   0  0  0  0  0  0  0  0  0  0  0  0
    3.3610   -5.0680   22.1644 C   0  0  0  0  0  0  0  0  0  0  0  0
    3.4106   -6.1256   21.3465 N   0  0  0  0  0  0  0  0  0  0  0  0
    4.6295   -6.6193   21.1750 C   0  0  0  0  0  0  0  0  0  0  0  0
    5.7736   -6.1938   21.6899 N   0  0  0  0  0  0  0  0  0  0  0  0
   11.7960    0.6565   24.9621 H   0  0  0  0  0  0  0  0  0  0  0  0
   13.3501   -0.6590   23.4879 H   0  0  0  0  0  0  0  0  0  0  0  0
    9.9818   -2.2215   21.3726 H   0  0  0  0  0  0  0  0  0  0  0  0
    7.2654   -1.1495   24.7761 H   0  0  0  0  0  0  0  0  0  0  0  0
    6.1984   -0.1866   23.7566 H   0  0  0  0  0  0  0  0  0  0  0  0
    6.0508    1.7850   24.7079 H   0  0  0  0  0  0  0  0  0  0  0  0
    7.4365    2.5267   25.5720 H   0  0  0  0  0  0  0  0  0  0  0  0
    6.2563    4.4998   20.9343 H   0  0  0  0  0  0  0  0  0  0  0  0
    7.1557   -1.0107   18.4115 H   0  0  0  0  0  0  0  0  0  0  0  0
    4.3199    1.4395   16.6687 H   0  0  0  0  0  0  0  0  0  0  0  0
    2.7169    2.7249   18.0345 H   0  0  0  0  0  0  0  0  0  0  0  0
    1.7879    3.3174   20.2521 H   0  0  0  0  0  0  0  0  0  0  0  0
    2.7462    2.3162   22.3121 H   0  0  0  0  0  0  0  0  0  0  0  0
    4.6190    0.7408   22.1738 H   0  0  0  0  0  0  0  0  0  0  0  0
    5.2594   -1.8370   22.1680 H   0  0  0  0  0  0  0  0  0  0  0  0
    5.8888   -2.6574   20.7273 H   0  0  0  0  0  0  0  0  0  0  0  0
    8.1042   -2.7443   21.5901 H   0  0  0  0  0  0  0  0  0  0  0  0
    6.3390   -3.0199   24.0554 H   0  0  0  0  0  0  0  0  0  0  0  0
    8.0509   -3.3763   24.0857 H   0  0  0  0  0  0  0  0  0  0  0  0
    7.6832   -5.2247   22.6322 H   0  0  0  0  0  0  0  0  0  0  0  0
    4.3772   -3.6512   23.4216 H   0  0  0  0  0  0  0  0  0  0  0  0
    2.3673   -4.6567   22.3383 H   0  0  0  0  0  0  0  0  0  0  0  0
    4.7252   -7.4885   20.5332 H   0  0  0  0  0  0  0  0  0  0  0  0
  1  2  2  0
  2  3  1  0
  3  4  2  0
  4  5  1  0
  5  6  2  0
  6  7  1  0
  6  8  1  0
  8  9  2  0
  9 10  1  0
 10 11  1  1
 11 12  1  0
 12 13  1  0
 13 14  1  0
 14 15  2  0
 15 16  1  0
 16 17  2  0
 17 18  1  0
 10 19  1  0
 19 20  2  0
 19 21  1  0
 21 22  1  0
 22 23  2  0
 23 24  1  0
 24 25  2  0
 25 26  1  0
 26 27  2  0
 27 28  1  0
 28 29  2  0
 29 30  1  0
 30 31  2  0
 21 32  1  0
 32 33  1  0
 33 34  1  0
 34 35  1  0
 35 36  1  0
 36 37  2  0
 37 38  1  0
 38 39  2  0
 39 40  1  0
 40 41  2  0
 12  2  1  0
 18 14  1  0
 31 22  1  0
 41 36  1  0
  9  3  1  0
 33 10  1  0
 31 26  1  0
  4 42  1  0
  5 43  1  0
  8 44  1  0
 11 45  1  0
 11 46  1  0
 13 47  1  0
 13 48  1  0
 17 49  1  0
 23 50  1  0
 25 51  1  0
 27 52  1  0
 28 53  1  0
 29 54  1  0
 30 55  1  0
 32 56  1  0
 32 57  1  0
 33 58  1  6
 34 59  1  0
 34 60  1  0
 35 61  1  0
 37 62  1  0
 38 63  1  0
 40 64  1  0
M  END
>  <RMSD>  (61) 
0.17744806541704766

$$$$

     RDKit          3D

 72 77  0  0  0  0  0  0  0  0999 V2000
    7.1901   -3.2377   23.4976 C   0  0  0  0  0  0  0  0  0  0  0  0
    7.3999   -2.2444   22.3663 C   0  0  1  0  0  0  0  0  0  0  0  0
    6.1370   -1.9185   21.5549 C   0  0  0  0  0  0  0  0  0  0  0  0
    6.5100   -0.6728   20.9108 N   0  0  0  0  0  0  0  0  0  0  0  0
    5.8527   -0.0893   19.8069 C   0  0  0  0  0  0  0  0  0  0  0  0
    6.3118   -0.3383   18.5399 C   0  0  0  0  0  0  0  0  0  0  0  0
    5.7776    0.1932   17.4131 N   0  0  0  0  0  0  0  0  0  0  0  0
    4.7628    1.0128   17.5757 C   0  0  0  0  0  0  0  0  0  0  0  0
    4.2079    1.3744   18.8379 C   0  0  0  0  0  0  0  0  0  0  0  0
    3.1289    2.2903   18.9431 C   0  0  0  0  0  0  0  0  0  0  0  0
    2.6206    2.6217   20.1692 C   0  0  0  0  0  0  0  0  0  0  0  0
    3.1594    2.0558   21.3439 C   0  0  0  0  0  0  0  0  0  0  0  0
    4.2050    1.1672   21.2718 C   0  0  0  0  0  0  0  0  0  0  0  0
    4.7558    0.8028   20.0069 C   0  0  0  0  0  0  0  0  0  0  0  0
    7.6521   -0.0939   21.4184 C   0  0  0  0  0  0  0  0  0  0  0  0
    8.2340    0.8378   20.9014 O   0  0  0  0  0  0  0  0  0  0  0  0
    8.0011   -0.8475   22.7231 C   0  0  1  0  0  0  0  0  0  0  0  0
    7.2682   -0.1792   23.9171 C   0  0  0  0  0  0  0  0  0  0  0  0
    7.8928    1.0727   24.2955 N   0  0  0  0  0  0  0  0  0  0  0  0
    7.1223    2.2906   24.4275 C   0  0  0  0  0  0  0  0  0  0  0  0
    7.0852    3.0600   23.0992 C   0  0  0  0  0  0  0  0  0  0  0  0
    6.5018    4.4437   23.2071 N   0  0  1  0  0  0  0  0  0  0  0  0
    5.1400    4.5118   23.8615 C   0  0  0  0  0  0  0  0  0  0  0  0
    4.6395    5.9452   23.8818 C   0  0  0  0  0  0  0  0  0  0  0  0
    5.5418    6.8076   24.5432 O   0  0  0  0  0  0  0  0  0  0  0  0
    6.8413    6.8470   23.9356 C   0  0  0  0  0  0  0  0  0  0  0  0
    6.7846    7.4939   22.5460 C   0  0  0  0  0  0  0  0  0  0  0  0
    7.6813    7.6827   24.8869 C   0  0  0  0  0  0  0  0  0  0  0  0
    7.4433    5.4340   23.8446 C   0  0  0  0  0  0  0  0  0  0  0  0
    9.2083    1.0790   24.6640 C   0  0  0  0  0  0  0  0  0  0  0  0
    9.6955    1.8996   25.4302 O   0  0  0  0  0  0  0  0  0  0  0  0
   10.0420    0.0541   23.9530 C   0  0  0  0  0  0  0  0  0  0  0  0
   11.4113    0.0650   24.1976 C   0  0  0  0  0  0  0  0  0  0  0  0
   12.2635   -0.6963   23.4242 C   0  0  0  0  0  0  0  0  0  0  0  0
   11.7166   -1.4851   22.4147 C   0  0  0  0  0  0  0  0  0  0  0  0
   12.7630   -2.4047   21.3797 Cl  0  0  0  0  0  0  0  0  0  0  0  0
   10.3542   -1.5695   22.2115 C   0  0  0  0  0  0  0  0  0  0  0  0
    9.4843   -0.8120   23.0009 C   0  0  0  0  0  0  0  0  0  0  0  0
    8.1063   -3.3791   24.0795 H   0  0  0  0  0  0  0  0  0  0  0  0
    6.8905   -4.2105   23.0938 H   0  0  0  0  0  0  0  0  0  0  0  0
    6.4016   -2.9057   24.1799 H   0  0  0  0  0  0  0  0  0  0  0  0
    8.0976   -2.6938   21.6538 H   0  0  0  0  0  0  0  0  0  0  0  0
    5.9091   -2.6869   20.8082 H   0  0  0  0  0  0  0  0  0  0  0  0
    5.2545   -1.8088   22.2074 H   0  0  0  0  0  0  0  0  0  0  0  0
    7.1680   -0.9981   18.4085 H   0  0  0  0  0  0  0  0  0  0  0  0
    4.3141    1.4365   16.6786 H   0  0  0  0  0  0  0  0  0  0  0  0
    2.7237    2.7189   18.0309 H   0  0  0  0  0  0  0  0  0  0  0  0
    1.7936    3.3188   20.2488 H   0  0  0  0  0  0  0  0  0  0  0  0
    2.7390    2.3202   22.3115 H   0  0  0  0  0  0  0  0  0  0  0  0
    4.6057    0.7536   22.1936 H   0  0  0  0  0  0  0  0  0  0  0  0
    6.2146    0.0096   23.6844 H   0  0  0  0  0  0  0  0  0  0  0  0
    7.3058   -0.8678   24.7723 H   0  0  0  0  0  0  0  0  0  0  0  0
    6.1053    2.0240   24.7406 H   0  0  0  0  0  0  0  0  0  0  0  0
    7.6008    2.8723   25.2227 H   0  0  0  0  0  0  0  0  0  0  0  0
    8.0957    3.1489   22.6834 H   0  0  0  0  0  0  0  0  0  0  0  0
    6.4924    2.5033   22.3643 H   0  0  0  0  0  0  0  0  0  0  0  0
    6.3751    4.7482   22.2239 H   0  0  0  0  0  0  0  0  0  0  0  0
    4.4448    3.8671   23.3190 H   0  0  0  0  0  0  0  0  0  0  0  0
    5.2209    4.1473   24.8860 H   0  0  0  0  0  0  0  0  0  0  0  0
    4.4507    6.2890   22.8571 H   0  0  0  0  0  0  0  0  0  0  0  0
    3.6936    6.0076   24.4251 H   0  0  0  0  0  0  0  0  0  0  0  0
    7.7691    7.4658   22.0627 H   0  0  0  0  0  0  0  0  0  0  0  0
    6.0965    6.9607   21.8851 H   0  0  0  0  0  0  0  0  0  0  0  0
    6.4585    8.5386   22.6196 H   0  0  0  0  0  0  0  0  0  0  0  0
    8.7140    7.7633   24.5316 H   0  0  0  0  0  0  0  0  0  0  0  0
    7.2495    8.6836   24.9652 H   0  0  0  0  0  0  0  0  0  0  0  0
    7.6786    7.2319   25.8845 H   0  0  0  0  0  0  0  0  0  0  0  0
    7.7020    5.0698   24.8417 H   0  0  0  0  0  0  0  0  0  0  0  0
    8.3702    5.4752   23.2602 H   0  0  0  0  0  0  0  0  0  0  0  0
   11.7799    0.7204   24.9774 H   0  0  0  0  0  0  0  0  0  0  0  0
   13.3372   -0.6429   23.5507 H   0  0  0  0  0  0  0  0  0  0  0  0
    9.9827   -2.2057   21.4160 H   0  0  0  0  0  0  0  0  0  0  0  0
  1  2  1  0
  2  3  1  0
  3  4  1  0
  4  5  1  0
  5  6  2  0
  6  7  1  0
  7  8  2  0
  8  9  1  0
  9 10  2  0
 10 11  1  0
 11 12  2  0
 12 13  1  0
 13 14  2  0
  4 15  1  0
 15 16  2  0
 15 17  1  0
 17 18  1  1
 18 19  1  0
 19 20  1  0
 20 21  1  0
 21 22  1  0
 22 23  1  0
 23 24  1  0
 24 25  1  0
 25 26  1  0
 26 27  1  0
 26 28  1  0
 26 29  1  0
 19 30  1  0
 30 31  2  0
 30 32  1  0
 32 33  2  0
 33 34  1  0
 34 35  2  0
 35 36  1  0
 35 37  1  0
 37 38  2  0
 17  2  1  0
 29 22  1  0
 38 32  1  0
 14  5  1  0
 38 17  1  0
 14  9  1  0
  1 39  1  0
  1 40  1  0
  1 41  1  0
  2 42  1  6
  3 43  1  0
  3 44  1  0
  6 45  1  0
  8 46  1  0
 10 47  1  0
 11 48  1  0
 12 49  1  0
 13 50  1  0
 18 51  1  0
 18 52  1  0
 20 53  1  0
 20 54  1  0
 21 55  1  0
 21 56  1  0
 22 57  1  6
 23 58  1  0
 23 59  1  0
 24 60  1  0
 24 61  1  0
 27 62  1  0
 27 63  1  0
 27 64  1  0
 28 65  1  0
 28 66  1  0
 28 67  1  0
 29 68  1  0
 29 69  1  0
 33 70  1  0
 34 71  1  0
 37 72  1  0
M  CHG  1  22   1
M  END
>  <RMSD>  (62) 
0.18054600136491528

$$$$

     RDKit          3D

 55 60  0  0  0  0  0  0  0  0999 V2000
   -7.2335   -5.0332  -23.0353 C   0  0  0  0  0  0  0  0  0  0  0  0
   -7.5631   -3.8769  -22.1002 C   0  0  1  0  0  0  0  0  0  0  0  0
   -6.3539   -3.2995  -21.3555 C   0  0  0  0  0  0  0  0  0  0  0  0
   -6.8091   -1.9734  -20.9771 N   0  0  0  0  0  0  0  0  0  0  0  0
   -6.1736   -1.1561  -20.0045 C   0  0  0  0  0  0  0  0  0  0  0  0
   -6.5467   -1.2440  -18.6855 C   0  0  0  0  0  0  0  0  0  0  0  0
   -6.0162   -0.5010  -17.6831 N   0  0  0  0  0  0  0  0  0  0  0  0
   -5.0741    0.3605  -17.9985 C   0  0  0  0  0  0  0  0  0  0  0  0
   -4.5718    0.5395  -19.3211 C   0  0  0  0  0  0  0  0  0  0  0  0
   -3.5559    1.4887  -19.6312 C   0  0  0  0  0  0  0  0  0  0  0  0
   -3.1048    1.6252  -20.9168 C   0  0  0  0  0  0  0  0  0  0  0  0
   -3.6322    0.8190  -21.9483 C   0  0  0  0  0  0  0  0  0  0  0  0
   -4.6179   -0.0996  -21.6780 C   0  0  0  0  0  0  0  0  0  0  0  0
   -5.1220   -0.2514  -20.3573 C   0  0  0  0  0  0  0  0  0  0  0  0
   -7.8820   -1.5272  -21.7261 C   0  0  0  0  0  0  0  0  0  0  0  0
   -8.4202   -0.4570  -21.5788 O   0  0  0  0  0  0  0  0  0  0  0  0
   -8.2330   -2.6374  -22.7525 C   0  0  1  0  0  0  0  0  0  0  0  0
   -7.5849   -2.2906  -24.1201 C   0  0  0  0  0  0  0  0  0  0  0  0
   -8.1495   -1.0853  -24.6917 N   0  0  0  0  0  0  0  0  0  0  0  0
   -7.3236   -0.2718  -25.5595 C   0  0  0  0  0  0  0  0  0  0  0  0
   -7.0043    1.0634  -24.9771 C   0  0  0  0  0  0  0  0  0  0  0  0
   -6.8406    2.2732  -25.6466 C   0  0  0  0  0  0  0  0  0  0  0  0
   -6.4903    3.2157  -24.7766 N   0  0  0  0  0  0  0  0  0  0  0  0
   -6.4588    2.5523  -23.6439 N   0  0  0  0  0  0  0  0  0  0  0  0
   -6.7499    1.2648  -23.6836 N   0  0  0  0  0  0  0  0  0  0  0  0
   -9.4898   -0.8142  -24.6480 C   0  0  0  0  0  0  0  0  0  0  0  0
   -9.9760    0.1405  -25.2384 O   0  0  0  0  0  0  0  0  0  0  0  0
  -10.3251   -1.7780  -23.8500 C   0  0  0  0  0  0  0  0  0  0  0  0
  -11.7159   -1.7199  -23.9784 C   0  0  0  0  0  0  0  0  0  0  0  0
  -12.5282   -2.5740  -23.2577 C   0  0  0  0  0  0  0  0  0  0  0  0
  -11.9211   -3.4977  -22.4157 C   0  0  0  0  0  0  0  0  0  0  0  0
  -12.6941   -4.3317  -21.6998 F   0  0  0  0  0  0  0  0  0  0  0  0
  -10.5514   -3.5858  -22.2677 C   0  0  0  0  0  0  0  0  0  0  0  0
   -9.7284   -2.7086  -22.9815 C   0  0  0  0  0  0  0  0  0  0  0  0
   -6.8780   -5.9046  -22.4765 H   0  0  0  0  0  0  0  0  0  0  0  0
   -6.4503   -4.7557  -23.7483 H   0  0  0  0  0  0  0  0  0  0  0  0
   -8.1090   -5.3418  -23.6179 H   0  0  0  0  0  0  0  0  0  0  0  0
   -8.2293   -4.2539  -21.3186 H   0  0  0  0  0  0  0  0  0  0  0  0
   -6.0977   -3.8859  -20.4695 H   0  0  0  0  0  0  0  0  0  0  0  0
   -5.4687   -3.2740  -22.0154 H   0  0  0  0  0  0  0  0  0  0  0  0
   -7.3326   -1.9379  -18.3952 H   0  0  0  0  0  0  0  0  0  0  0  0
   -4.6533    0.9661  -17.1941 H   0  0  0  0  0  0  0  0  0  0  0  0
   -3.1504    2.1099  -18.8363 H   0  0  0  0  0  0  0  0  0  0  0  0
   -2.3312    2.3512  -21.1531 H   0  0  0  0  0  0  0  0  0  0  0  0
   -3.2743    0.9381  -22.9676 H   0  0  0  0  0  0  0  0  0  0  0  0
   -5.0377   -0.6971  -22.4825 H   0  0  0  0  0  0  0  0  0  0  0  0
   -6.5073   -2.1307  -23.9827 H   0  0  0  0  0  0  0  0  0  0  0  0
   -7.7250   -3.1247  -24.8245 H   0  0  0  0  0  0  0  0  0  0  0  0
   -6.3907   -0.8139  -25.7564 H   0  0  0  0  0  0  0  0  0  0  0  0
   -7.8190   -0.1498  -26.5259 H   0  0  0  0  0  0  0  0  0  0  0  0
   -6.9518    2.4593  -26.6964 H   0  0  0  0  0  0  0  0  0  0  0  0
   -6.2168    3.0055  -22.7862 H   0  0  0  0  0  0  0  0  0  0  0  0
  -12.1586   -0.9954  -24.6516 H   0  0  0  0  0  0  0  0  0  0  0  0
  -13.6128   -2.5348  -23.3272 H   0  0  0  0  0  0  0  0  0  0  0  0
  -10.1544   -4.3384  -21.5958 H   0  0  0  0  0  0  0  0  0  0  0  0
  1  2  1  0
  2  3  1  0
  3  4  1  0
  4  5  1  0
  5  6  2  0
  6  7  1  0
  7  8  2  0
  8  9  1  0
  9 10  2  0
 10 11  1  0
 11 12  2  0
 12 13  1  0
 13 14  2  0
  4 15  1  0
 15 16  2  0
 15 17  1  0
 17 18  1  6
 18 19  1  0
 19 20  1  0
 20 21  1  0
 21 22  1  0
 22 23  2  0
 23 24  1  0
 24 25  1  0
 19 26  1  0
 26 27  2  0
 26 28  1  0
 28 29  2  0
 29 30  1  0
 30 31  2  0
 31 32  1  0
 31 33  1  0
 33 34  2  0
 17  2  1  0
 25 21  2  0
 34 28  1  0
 14  5  1  0
 34 17  1  0
 14  9  1  0
  1 35  1  0
  1 36  1  0
  1 37  1  0
  2 38  1  1
  3 39  1  0
  3 40  1  0
  6 41  1  0
  8 42  1  0
 10 43  1  0
 11 44  1  0
 12 45  1  0
 13 46  1  0
 18 47  1  0
 18 48  1  0
 20 49  1  0
 20 50  1  0
 22 51  1  0
 24 52  1  0
 29 53  1  0
 30 54  1  0
 33 55  1  0
M  END
>  <RMSD>  (63) 
0.05494504020247702

$$$$

     RDKit          3D

 44 47  0  0  0  0  0  0  0  0999 V2000
    7.9402    1.0086   21.0013 O   0  0  0  0  0  0  0  0  0  0  0  0
    7.5469    0.0161   21.5714 C   0  0  0  0  0  0  0  0  0  0  0  0
    6.4255   -0.8794   21.0082 C   0  0  0  0  0  0  0  0  0  0  0  0
    5.7529   -0.2212   19.8371 C   0  0  0  0  0  0  0  0  0  0  0  0
    6.2257   -0.4283   18.5713 C   0  0  0  0  0  0  0  0  0  0  0  0
    5.7555    0.1703   17.4488 N   0  0  0  0  0  0  0  0  0  0  0  0
    4.7730    1.0208   17.5857 C   0  0  0  0  0  0  0  0  0  0  0  0
    4.1939    1.3610   18.8363 C   0  0  0  0  0  0  0  0  0  0  0  0
    3.1466    2.3119   18.9465 C   0  0  0  0  0  0  0  0  0  0  0  0
    2.6275    2.6341   20.1706 C   0  0  0  0  0  0  0  0  0  0  0  0
    3.1367    2.0159   21.3385 C   0  0  0  0  0  0  0  0  0  0  0  0
    4.1469    1.0903   21.2567 C   0  0  0  0  0  0  0  0  0  0  0  0
    4.7040    0.7290   20.0026 C   0  0  0  0  0  0  0  0  0  0  0  0
    8.1262   -0.4053   22.8206 N   0  0  0  0  0  0  0  0  0  0  0  0
    9.5945   -0.5222   22.8686 C   0  0  0  0  0  0  0  0  0  0  0  0
   10.0953    0.5970   23.7728 C   0  0  0  0  0  0  0  0  0  0  0  0
    8.9948    0.6744   24.8307 C   0  0  0  0  0  0  0  0  0  0  0  0
    7.7042    0.3460   24.0426 C   0  0  2  0  0  0  0  0  0  0  0  0
    6.7178   -0.4729   24.8398 C   0  0  0  0  0  0  0  0  0  0  0  0
    5.5309    0.0888   25.3004 C   0  0  0  0  0  0  0  0  0  0  0  0
    4.6240   -0.6776   26.0206 C   0  0  0  0  0  0  0  0  0  0  0  0
    4.8847   -2.0104   26.3034 C   0  0  0  0  0  0  0  0  0  0  0  0
    6.0814   -2.5413   25.8527 C   0  0  0  0  0  0  0  0  0  0  0  0
    6.3502   -3.8300   26.1192 F   0  0  0  0  0  0  0  0  0  0  0  0
    7.0063   -1.8043   25.1357 C   0  0  0  0  0  0  0  0  0  0  0  0
    5.7200   -1.1685   21.7991 H   0  0  0  0  0  0  0  0  0  0  0  0
    6.8869   -1.8224   20.6825 H   0  0  0  0  0  0  0  0  0  0  0  0
    7.0542   -1.1166   18.3992 H   0  0  0  0  0  0  0  0  0  0  0  0
    4.3963    1.4913   16.6736 H   0  0  0  0  0  0  0  0  0  0  0  0
    2.7787    2.7888   18.0376 H   0  0  0  0  0  0  0  0  0  0  0  0
    1.8346    3.3740   20.2563 H   0  0  0  0  0  0  0  0  0  0  0  0
    2.7227    2.2822   22.3074 H   0  0  0  0  0  0  0  0  0  0  0  0
    4.5346    0.6256   22.1598 H   0  0  0  0  0  0  0  0  0  0  0  0
   10.0533   -0.5128   21.8737 H   0  0  0  0  0  0  0  0  0  0  0  0
    9.8334   -1.4898   23.3356 H   0  0  0  0  0  0  0  0  0  0  0  0
   10.1251    1.5303   23.1950 H   0  0  0  0  0  0  0  0  0  0  0  0
   11.0990    0.4076   24.1909 H   0  0  0  0  0  0  0  0  0  0  0  0
    8.9343    1.6530   25.3191 H   0  0  0  0  0  0  0  0  0  0  0  0
    9.1595   -0.0604   25.6273 H   0  0  0  0  0  0  0  0  0  0  0  0
    7.2213    1.2985   23.7752 H   0  0  0  0  0  0  0  0  0  0  0  0
    5.3200    1.1336   25.0849 H   0  0  0  0  0  0  0  0  0  0  0  0
    3.6969   -0.2312   26.3555 H   0  0  0  0  0  0  0  0  0  0  0  0
    4.1864   -2.6297   26.8571 H   0  0  0  0  0  0  0  0  0  0  0  0
    7.9288   -2.2825   24.8100 H   0  0  0  0  0  0  0  0  0  0  0  0
  1  2  2  0
  2  3  1  0
  3  4  1  0
  4  5  2  0
  5  6  1  0
  6  7  2  0
  7  8  1  0
  8  9  2  0
  9 10  1  0
 10 11  2  0
 11 12  1  0
 12 13  2  0
  2 14  1  0
 14 15  1  0
 15 16  1  0
 16 17  1  0
 17 18  1  0
 18 19  1  0
 19 20  2  0
 20 21  1  0
 21 22  2  0
 22 23  1  0
 23 24  1  0
 23 25  2  0
 13  4  1  0
 18 14  1  0
 25 19  1  0
 13  8  1  0
  3 26  1  0
  3 27  1  0
  5 28  1  0
  7 29  1  0
  9 30  1  0
 10 31  1  0
 11 32  1  0
 12 33  1  0
 15 34  1  0
 15 35  1  0
 16 36  1  0
 16 37  1  0
 17 38  1  0
 17 39  1  0
 18 40  1  6
 20 41  1  0
 21 42  1  0
 22 43  1  0
 25 44  1  0
M  END
>  <RMSD>  (64) 
0.04839069115750972

$$$$

     RDKit          3D

 58 63  0  0  0  0  0  0  0  0999 V2000
   -7.2313   -5.0353  -23.0320 C   0  0  0  0  0  0  0  0  0  0  0  0
   -7.5608   -3.8775  -22.0991 C   0  0  1  0  0  0  0  0  0  0  0  0
   -6.3524   -3.3007  -21.3528 C   0  0  0  0  0  0  0  0  0  0  0  0
   -6.8087   -1.9769  -20.9741 N   0  0  0  0  0  0  0  0  0  0  0  0
   -6.1741   -1.1564  -20.0035 C   0  0  0  0  0  0  0  0  0  0  0  0
   -6.5466   -1.2441  -18.6861 C   0  0  0  0  0  0  0  0  0  0  0  0
   -6.0161   -0.5009  -17.6815 N   0  0  0  0  0  0  0  0  0  0  0  0
   -5.0749    0.3597  -17.9986 C   0  0  0  0  0  0  0  0  0  0  0  0
   -4.5722    0.5394  -19.3205 C   0  0  0  0  0  0  0  0  0  0  0  0
   -3.5565    1.4877  -19.6318 C   0  0  0  0  0  0  0  0  0  0  0  0
   -3.1024    1.6229  -20.9158 C   0  0  0  0  0  0  0  0  0  0  0  0
   -3.6341    0.8218  -21.9540 C   0  0  0  0  0  0  0  0  0  0  0  0
   -4.6243   -0.0905  -21.6828 C   0  0  0  0  0  0  0  0  0  0  0  0
   -5.1235   -0.2513  -20.3599 C   0  0  0  0  0  0  0  0  0  0  0  0
   -7.8809   -1.5276  -21.7225 C   0  0  0  0  0  0  0  0  0  0  0  0
   -8.4116   -0.4539  -21.5736 O   0  0  0  0  0  0  0  0  0  0  0  0
   -8.2315   -2.6373  -22.7534 C   0  0  1  0  0  0  0  0  0  0  0  0
   -7.5859   -2.2864  -24.1225 C   0  0  0  0  0  0  0  0  0  0  0  0
   -8.1609   -1.0892  -24.7080 N   0  0  0  0  0  0  0  0  0  0  0  0
   -7.3161   -0.2674  -25.5477 C   0  0  0  0  0  0  0  0  0  0  0  0
   -6.6897    0.9256  -24.8381 C   0  0  0  0  0  0  0  0  0  0  0  0
   -5.5391    1.4738  -25.3420 C   0  0  0  0  0  0  0  0  0  0  0  0
   -4.9216    2.6164  -24.7176 C   0  0  0  0  0  0  0  0  0  0  0  0
   -3.9044    3.1918  -25.0668 O   0  0  0  0  0  0  0  0  0  0  0  0
   -5.6333    3.0382  -23.5792 N   0  0  0  0  0  0  0  0  0  0  0  0
   -6.7740    2.4286  -23.1497 C   0  0  0  0  0  0  0  0  0  0  0  0
   -7.3256    1.4063  -23.7252 N   0  0  0  0  0  0  0  0  0  0  0  0
   -9.5013   -0.8191  -24.6565 C   0  0  0  0  0  0  0  0  0  0  0  0
  -10.0029    0.1292  -25.2428 O   0  0  0  0  0  0  0  0  0  0  0  0
  -10.3261   -1.7832  -23.8491 C   0  0  0  0  0  0  0  0  0  0  0  0
  -11.7156   -1.7242  -23.9772 C   0  0  0  0  0  0  0  0  0  0  0  0
  -12.5282   -2.5777  -23.2572 C   0  0  0  0  0  0  0  0  0  0  0  0
  -11.9189   -3.5008  -22.4149 C   0  0  0  0  0  0  0  0  0  0  0  0
  -12.6921   -4.3339  -21.6990 F   0  0  0  0  0  0  0  0  0  0  0  0
  -10.5500   -3.5884  -22.2658 C   0  0  0  0  0  0  0  0  0  0  0  0
   -9.7266   -2.7118  -22.9803 C   0  0  0  0  0  0  0  0  0  0  0  0
   -6.8757   -5.9063  -22.4734 H   0  0  0  0  0  0  0  0  0  0  0  0
   -6.4485   -4.7586  -23.7449 H   0  0  0  0  0  0  0  0  0  0  0  0
   -8.1058   -5.3446  -23.6147 H   0  0  0  0  0  0  0  0  0  0  0  0
   -8.2288   -4.2534  -21.3184 H   0  0  0  0  0  0  0  0  0  0  0  0
   -6.0956   -3.8866  -20.4671 H   0  0  0  0  0  0  0  0  0  0  0  0
   -5.4675   -3.2765  -22.0123 H   0  0  0  0  0  0  0  0  0  0  0  0
   -7.3324   -1.9380  -18.3929 H   0  0  0  0  0  0  0  0  0  0  0  0
   -4.6535    0.9665  -17.1933 H   0  0  0  0  0  0  0  0  0  0  0  0
   -3.1510    2.1093  -18.8360 H   0  0  0  0  0  0  0  0  0  0  0  0
   -2.3286    2.3520  -21.1491 H   0  0  0  0  0  0  0  0  0  0  0  0
   -3.2668    0.9396  -22.9704 H   0  0  0  0  0  0  0  0  0  0  0  0
   -5.0382   -0.7030  -22.4798 H   0  0  0  0  0  0  0  0  0  0  0  0
   -7.7225   -3.1235  -24.8223 H   0  0  0  0  0  0  0  0  0  0  0  0
   -6.5091   -2.1255  -23.9896 H   0  0  0  0  0  0  0  0  0  0  0  0
   -6.5238   -0.9038  -25.9605 H   0  0  0  0  0  0  0  0  0  0  0  0
   -7.9106    0.0639  -26.4029 H   0  0  0  0  0  0  0  0  0  0  0  0
   -5.0535    1.0886  -26.2269 H   0  0  0  0  0  0  0  0  0  0  0  0
   -5.2497    3.8379  -23.0897 H   0  0  0  0  0  0  0  0  0  0  0  0
   -7.2389    2.8590  -22.2631 H   0  0  0  0  0  0  0  0  0  0  0  0
  -12.1548   -0.9985  -24.6519 H   0  0  0  0  0  0  0  0  0  0  0  0
  -13.6116   -2.5386  -23.3270 H   0  0  0  0  0  0  0  0  0  0  0  0
  -10.1520   -4.3408  -21.5936 H   0  0  0  0  0  0  0  0  0  0  0  0
  1  2  1  0
  2  3  1  0
  3  4  1  0
  4  5  1  0
  5  6  2  0
  6  7  1  0
  7  8  2  0
  8  9  1  0
  9 10  2  0
 10 11  1  0
 11 12  2  0
 12 13  1  0
 13 14  2  0
  4 15  1  0
 15 16  2  0
 15 17  1  0
 17 18  1  6
 18 19  1  0
 19 20  1  0
 20 21  1  0
 21 22  2  0
 22 23  1  0
 23 24  2  0
 23 25  1  0
 25 26  1  0
 26 27  2  0
 19 28  1  0
 28 29  2  0
 28 30  1  0
 30 31  2  0
 31 32  1  0
 32 33  2  0
 33 34  1  0
 33 35  1  0
 35 36  2  0
 17  2  1  0
 27 21  1  0
 36 30  1  0
 14  5  1  0
 36 17  1  0
 14  9  1  0
  1 37  1  0
  1 38  1  0
  1 39  1  0
  2 40  1  1
  3 41  1  0
  3 42  1  0
  6 43  1  0
  8 44  1  0
 10 45  1  0
 11 46  1  0
 12 47  1  0
 13 48  1  0
 18 49  1  0
 18 50  1  0
 20 51  1  0
 20 52  1  0
 22 53  1  0
 25 54  1  0
 26 55  1  0
 31 56  1  0
 32 57  1  0
 35 58  1  0
M  END
>  <RMSD>  (65) 
0.05567105422463027

$$$$

     RDKit          3D

 66 71  0  0  0  0  0  0  0  0999 V2000
   -6.7713    2.6222  -23.2014 C   0  0  0  0  0  0  0  0  0  0  0  0
   -7.3422    1.4427  -23.8269 N   0  0  0  0  0  0  0  0  0  0  0  0
   -6.8497    1.0158  -25.0115 C   0  0  0  0  0  0  0  0  0  0  0  0
   -6.0292    1.6479  -25.6672 O   0  0  0  0  0  0  0  0  0  0  0  0
   -7.3588   -0.3214  -25.5671 C   0  0  0  0  0  0  0  0  0  0  0  0
   -8.1641   -1.1415  -24.6902 N   0  0  0  0  0  0  0  0  0  0  0  0
   -7.5739   -2.3302  -24.0936 C   0  0  0  0  0  0  0  0  0  0  0  0
   -8.2139   -2.6652  -22.7205 C   0  0  2  0  0  0  0  0  0  0  0  0
   -7.8531   -1.5516  -21.7065 C   0  0  0  0  0  0  0  0  0  0  0  0
   -8.3791   -0.4611  -21.5866 O   0  0  0  0  0  0  0  0  0  0  0  0
   -6.7941   -1.9909  -20.9487 N   0  0  0  0  0  0  0  0  0  0  0  0
   -6.1669   -1.1585  -19.9919 C   0  0  0  0  0  0  0  0  0  0  0  0
   -6.5463   -1.2397  -18.6775 C   0  0  0  0  0  0  0  0  0  0  0  0
   -6.0207   -0.4904  -17.6737 N   0  0  0  0  0  0  0  0  0  0  0  0
   -5.0789    0.3637  -18.0033 C   0  0  0  0  0  0  0  0  0  0  0  0
   -4.5865    0.5437  -19.3303 C   0  0  0  0  0  0  0  0  0  0  0  0
   -3.5647    1.4818  -19.6345 C   0  0  0  0  0  0  0  0  0  0  0  0
   -3.0999    1.6172  -20.9139 C   0  0  0  0  0  0  0  0  0  0  0  0
   -3.6298    0.8220  -21.9537 C   0  0  0  0  0  0  0  0  0  0  0  0
   -4.6279   -0.0830  -21.6898 C   0  0  0  0  0  0  0  0  0  0  0  0
   -5.1365   -0.2422  -20.3677 C   0  0  0  0  0  0  0  0  0  0  0  0
   -6.3221   -3.3113  -21.3036 C   0  0  0  0  0  0  0  0  0  0  0  0
   -7.5470   -3.8907  -22.0324 C   0  0  2  0  0  0  0  0  0  0  0  0
   -7.2542   -5.1018  -22.9338 C   0  0  0  0  0  0  0  0  0  0  0  0
   -6.8667   -6.3171  -22.2446 N   0  0  0  0  0  0  0  0  0  0  0  0
   -5.6220   -6.5445  -21.7473 C   0  0  0  0  0  0  0  0  0  0  0  0
   -4.4590   -5.9280  -22.2411 C   0  0  0  0  0  0  0  0  0  0  0  0
   -3.2759   -6.2603  -21.6149 C   0  0  0  0  0  0  0  0  0  0  0  0
   -3.2028   -7.0730  -20.5588 N   0  0  0  0  0  0  0  0  0  0  0  0
   -4.3632   -7.5911  -20.1876 C   0  0  0  0  0  0  0  0  0  0  0  0
   -5.5529   -7.4232  -20.7391 N   0  0  0  0  0  0  0  0  0  0  0  0
   -9.7128   -2.7399  -22.9284 C   0  0  0  0  0  0  0  0  0  0  0  0
  -10.5493   -3.6069  -22.2139 C   0  0  0  0  0  0  0  0  0  0  0  0
  -11.9236   -3.5276  -22.3620 C   0  0  0  0  0  0  0  0  0  0  0  0
  -12.9377   -4.6003  -21.4372 Cl  0  0  0  0  0  0  0  0  0  0  0  0
  -12.5235   -2.6029  -23.2147 C   0  0  0  0  0  0  0  0  0  0  0  0
  -11.7075   -1.7571  -23.9365 C   0  0  0  0  0  0  0  0  0  0  0  0
  -10.3207   -1.8349  -23.8111 C   0  0  0  0  0  0  0  0  0  0  0  0
   -9.5137   -0.9098  -24.6686 C   0  0  0  0  0  0  0  0  0  0  0  0
  -10.0336    0.0054  -25.2922 O   0  0  0  0  0  0  0  0  0  0  0  0
   -6.8714    3.5035  -23.8434 H   0  0  0  0  0  0  0  0  0  0  0  0
   -7.3029    2.8053  -22.2645 H   0  0  0  0  0  0  0  0  0  0  0  0
   -5.7055    2.4739  -22.9819 H   0  0  0  0  0  0  0  0  0  0  0  0
   -7.9293    0.8441  -23.2564 H   0  0  0  0  0  0  0  0  0  0  0  0
   -7.9376   -0.0921  -26.4666 H   0  0  0  0  0  0  0  0  0  0  0  0
   -6.4696   -0.8762  -25.8819 H   0  0  0  0  0  0  0  0  0  0  0  0
   -7.7065   -3.1914  -24.7610 H   0  0  0  0  0  0  0  0  0  0  0  0
   -6.4991   -2.1520  -23.9745 H   0  0  0  0  0  0  0  0  0  0  0  0
   -7.3335   -1.9378  -18.3960 H   0  0  0  0  0  0  0  0  0  0  0  0
   -4.6372    0.9622  -17.2047 H   0  0  0  0  0  0  0  0  0  0  0  0
   -3.1663    2.0872  -18.8270 H   0  0  0  0  0  0  0  0  0  0  0  0
   -2.3246    2.3409  -21.1468 H   0  0  0  0  0  0  0  0  0  0  0  0
   -3.2664    0.9500  -22.9710 H   0  0  0  0  0  0  0  0  0  0  0  0
   -5.0237   -0.6884  -22.4997 H   0  0  0  0  0  0  0  0  0  0  0  0
   -6.0277   -3.8660  -20.4091 H   0  0  0  0  0  0  0  0  0  0  0  0
   -5.4387   -3.2468  -21.9597 H   0  0  0  0  0  0  0  0  0  0  0  0
   -8.2358   -4.1991  -21.2409 H   0  0  0  0  0  0  0  0  0  0  0  0
   -8.1221   -5.3390  -23.5601 H   0  0  0  0  0  0  0  0  0  0  0  0
   -6.4420   -4.8559  -23.6206 H   0  0  0  0  0  0  0  0  0  0  0  0
   -7.5741   -6.8060  -21.7113 H   0  0  0  0  0  0  0  0  0  0  0  0
   -4.4844   -5.1977  -23.0372 H   0  0  0  0  0  0  0  0  0  0  0  0
   -2.3236   -5.8483  -21.9487 H   0  0  0  0  0  0  0  0  0  0  0  0
   -4.3495   -8.2141  -19.3064 H   0  0  0  0  0  0  0  0  0  0  0  0
  -10.1539   -4.3592  -21.5421 H   0  0  0  0  0  0  0  0  0  0  0  0
  -13.6051   -2.5653  -23.3001 H   0  0  0  0  0  0  0  0  0  0  0  0
  -12.1233   -1.0204  -24.6149 H   0  0  0  0  0  0  0  0  0  0  0  0
  1  2  1  0
  2  3  1  0
  3  4  2  0
  3  5  1  0
  5  6  1  0
  6  7  1  0
  8  7  1  6
  8  9  1  0
  9 10  2  0
  9 11  1  0
 11 12  1  0
 12 13  2  0
 13 14  1  0
 14 15  2  0
 15 16  1  0
 16 17  2  0
 17 18  1  0
 18 19  2  0
 19 20  1  0
 20 21  2  0
 11 22  1  0
 22 23  1  0
 23 24  1  0
 24 25  1  0
 25 26  1  0
 26 27  2  0
 27 28  1  0
 28 29  2  0
 29 30  1  0
 30 31  2  0
  8 32  1  0
 32 33  2  0
 33 34  1  0
 34 35  1  0
 34 36  2  0
 36 37  1  0
 37 38  2  0
 38 39  1  0
 39 40  2  0
 39  6  1  0
 23  8  1  0
 31 26  1  0
 38 32  1  0
 21 12  1  0
 21 16  1  0
  1 41  1  0
  1 42  1  0
  1 43  1  0
  2 44  1  0
  5 45  1  0
  5 46  1  0
  7 47  1  0
  7 48  1  0
 13 49  1  0
 15 50  1  0
 17 51  1  0
 18 52  1  0
 19 53  1  0
 20 54  1  0
 22 55  1  0
 22 56  1  0
 23 57  1  1
 24 58  1  0
 24 59  1  0
 25 60  1  0
 27 61  1  0
 28 62  1  0
 30 63  1  0
 33 64  1  0
 36 65  1  0
 37 66  1  0
M  END
>  <RMSD>  (66) 
0.061190582904894805

$$$$

     RDKit          3D

 57 62  0  0  0  0  0  0  0  0999 V2000
   -7.2442   -5.0254  -23.0406 C   0  0  0  0  0  0  0  0  0  0  0  0
   -7.5684   -3.8708  -22.1046 C   0  0  1  0  0  0  0  0  0  0  0  0
   -6.3587   -3.2951  -21.3584 C   0  0  0  0  0  0  0  0  0  0  0  0
   -6.8174   -1.9724  -20.9740 N   0  0  0  0  0  0  0  0  0  0  0  0
   -6.1794   -1.1525  -20.0047 C   0  0  0  0  0  0  0  0  0  0  0  0
   -6.5489   -1.2431  -18.6851 C   0  0  0  0  0  0  0  0  0  0  0  0
   -6.0153   -0.5031  -17.6826 N   0  0  0  0  0  0  0  0  0  0  0  0
   -5.0741    0.3588  -17.9984 C   0  0  0  0  0  0  0  0  0  0  0  0
   -4.5742    0.5397  -19.3229 C   0  0  0  0  0  0  0  0  0  0  0  0
   -3.5561    1.4881  -19.6315 C   0  0  0  0  0  0  0  0  0  0  0  0
   -3.1040    1.6256  -20.9179 C   0  0  0  0  0  0  0  0  0  0  0  0
   -3.6309    0.8228  -21.9508 C   0  0  0  0  0  0  0  0  0  0  0  0
   -4.6108   -0.1010  -21.6757 C   0  0  0  0  0  0  0  0  0  0  0  0
   -5.1262   -0.2505  -20.3573 C   0  0  0  0  0  0  0  0  0  0  0  0
   -7.8883   -1.5302  -21.7215 C   0  0  0  0  0  0  0  0  0  0  0  0
   -8.4263   -0.4528  -21.5806 O   0  0  0  0  0  0  0  0  0  0  0  0
   -8.2402   -2.6312  -22.7542 C   0  0  1  0  0  0  0  0  0  0  0  0
   -7.5973   -2.2607  -24.1179 C   0  0  0  0  0  0  0  0  0  0  0  0
   -8.1473   -1.0126  -24.6351 N   0  0  0  0  0  0  0  0  0  0  0  0
   -7.3310   -0.2696  -25.5923 C   0  0  0  0  0  0  0  0  0  0  0  0
   -7.6102    1.1942  -25.6299 C   0  0  0  0  0  0  0  0  0  0  0  0
   -8.0191    1.8579  -26.6841 N   0  0  0  0  0  0  0  0  0  0  0  0
   -8.1380    3.1421  -26.2925 N   0  0  0  0  0  0  0  0  0  0  0  0
   -7.7760    3.2795  -25.0651 N   0  0  0  0  0  0  0  0  0  0  0  0
   -7.4289    2.0680  -24.6236 N   0  0  0  0  0  0  0  0  0  0  0  0
   -6.8956    1.8851  -23.2946 C   0  0  0  0  0  0  0  0  0  0  0  0
   -9.5072   -0.8052  -24.6326 C   0  0  0  0  0  0  0  0  0  0  0  0
  -10.0474    0.1156  -25.2277 O   0  0  0  0  0  0  0  0  0  0  0  0
  -10.3329   -1.7767  -23.8404 C   0  0  0  0  0  0  0  0  0  0  0  0
  -11.7260   -1.7111  -23.9699 C   0  0  0  0  0  0  0  0  0  0  0  0
  -12.5398   -2.5632  -23.2510 C   0  0  0  0  0  0  0  0  0  0  0  0
  -11.9301   -3.4879  -22.4118 C   0  0  0  0  0  0  0  0  0  0  0  0
  -12.7021   -4.3215  -21.6960 F   0  0  0  0  0  0  0  0  0  0  0  0
  -10.5609   -3.5788  -22.2622 C   0  0  0  0  0  0  0  0  0  0  0  0
   -9.7360   -2.7029  -22.9736 C   0  0  0  0  0  0  0  0  0  0  0  0
   -8.1193   -5.3331  -23.6217 H   0  0  0  0  0  0  0  0  0  0  0  0
   -6.8879   -5.8972  -22.4856 H   0  0  0  0  0  0  0  0  0  0  0  0
   -6.4643   -4.7475  -23.7549 H   0  0  0  0  0  0  0  0  0  0  0  0
   -8.2391   -4.2429  -21.3252 H   0  0  0  0  0  0  0  0  0  0  0  0
   -5.4765   -3.2709  -22.0201 H   0  0  0  0  0  0  0  0  0  0  0  0
   -6.1010   -3.8814  -20.4749 H   0  0  0  0  0  0  0  0  0  0  0  0
   -7.3340   -1.9368  -18.3937 H   0  0  0  0  0  0  0  0  0  0  0  0
   -4.6512    0.9618  -17.1938 H   0  0  0  0  0  0  0  0  0  0  0  0
   -3.1498    2.1077  -18.8361 H   0  0  0  0  0  0  0  0  0  0  0  0
   -2.3326    2.3531  -21.1563 H   0  0  0  0  0  0  0  0  0  0  0  0
   -3.2789    0.9465  -22.9722 H   0  0  0  0  0  0  0  0  0  0  0  0
   -5.0199   -0.7071  -22.4772 H   0  0  0  0  0  0  0  0  0  0  0  0
   -6.5171   -2.1374  -23.9887 H   0  0  0  0  0  0  0  0  0  0  0  0
   -7.7503   -3.0898  -24.8288 H   0  0  0  0  0  0  0  0  0  0  0  0
   -6.2778   -0.4125  -25.3093 H   0  0  0  0  0  0  0  0  0  0  0  0
   -7.4506   -0.6443  -26.6175 H   0  0  0  0  0  0  0  0  0  0  0  0
   -7.5720    2.2944  -22.5473 H   0  0  0  0  0  0  0  0  0  0  0  0
   -5.9185    2.3612  -23.1933 H   0  0  0  0  0  0  0  0  0  0  0  0
   -6.7949    0.8226  -23.1102 H   0  0  0  0  0  0  0  0  0  0  0  0
  -12.1642   -0.9823  -24.6422 H   0  0  0  0  0  0  0  0  0  0  0  0
  -13.6244   -2.5221  -23.3185 H   0  0  0  0  0  0  0  0  0  0  0  0
  -10.1603   -4.3320  -21.5938 H   0  0  0  0  0  0  0  0  0  0  0  0
  1  2  1  0
  2  3  1  0
  3  4  1  0
  4  5  1  0
  5  6  2  0
  6  7  1  0
  7  8  2  0
  8  9  1  0
  9 10  2  0
 10 11  1  0
 11 12  2  0
 12 13  1  0
 13 14  2  0
  4 15  1  0
 15 16  2  0
 15 17  1  0
 17 18  1  6
 18 19  1  0
 19 20  1  0
 20 21  1  0
 21 22  2  0
 22 23  1  0
 23 24  2  0
 24 25  1  0
 25 26  1  0
 19 27  1  0
 27 28  2  0
 27 29  1  0
 29 30  2  0
 30 31  1  0
 31 32  2  0
 32 33  1  0
 32 34  1  0
 34 35  2  0
 17  2  1  0
 25 21  1  0
 35 29  1  0
 14  5  1  0
 35 17  1  0
 14  9  1  0
  1 36  1  0
  1 37  1  0
  1 38  1  0
  2 39  1  1
  3 40  1  0
  3 41  1  0
  6 42  1  0
  8 43  1  0
 10 44  1  0
 11 45  1  0
 12 46  1  0
 13 47  1  0
 18 48  1  0
 18 49  1  0
 20 50  1  0
 20 51  1  0
 26 52  1  0
 26 53  1  0
 26 54  1  0
 30 55  1  0
 31 56  1  0
 34 57  1  0
M  END
>  <RMSD>  (67) 
0.05600890293685564

$$$$

     RDKit          3D

 58 63  0  0  0  0  0  0  0  0999 V2000
    7.0670   -3.2858   23.5060 C   0  0  0  0  0  0  0  0  0  0  0  0
    7.3544   -2.2816   22.3974 C   0  0  1  0  0  0  0  0  0  0  0  0
    6.1374   -1.9287   21.5312 C   0  0  0  0  0  0  0  0  0  0  0  0
    6.5300   -0.6650   20.9379 N   0  0  0  0  0  0  0  0  0  0  0  0
    5.8826   -0.0579   19.8297 C   0  0  0  0  0  0  0  0  0  0  0  0
    6.3052   -0.3467   18.5568 C   0  0  0  0  0  0  0  0  0  0  0  0
    5.7637    0.1720   17.4275 N   0  0  0  0  0  0  0  0  0  0  0  0
    4.7620    1.0111   17.5700 C   0  0  0  0  0  0  0  0  0  0  0  0
    4.2049    1.3862   18.8268 C   0  0  0  0  0  0  0  0  0  0  0  0
    3.1194    2.3007   18.9428 C   0  0  0  0  0  0  0  0  0  0  0  0
    2.6080    2.6216   20.1712 C   0  0  0  0  0  0  0  0  0  0  0  0
    3.1478    2.0422   21.3426 C   0  0  0  0  0  0  0  0  0  0  0  0
    4.2093    1.1740   21.2589 C   0  0  0  0  0  0  0  0  0  0  0  0
    4.7702    0.8274   20.0009 C   0  0  0  0  0  0  0  0  0  0  0  0
    7.5487   -0.0278   21.6184 C   0  0  0  0  0  0  0  0  0  0  0  0
    8.0319    1.0264   21.2776 O   0  0  0  0  0  0  0  0  0  0  0  0
    7.9269   -0.9071   22.8414 C   0  0  1  0  0  0  0  0  0  0  0  0
    7.2182   -0.3780   24.1174 C   0  0  0  0  0  0  0  0  0  0  0  0
    7.6992    0.9348   24.5044 N   0  0  0  0  0  0  0  0  0  0  0  0
    6.7754    1.8306   25.1645 C   0  0  0  0  0  0  0  0  0  0  0  0
    6.1114    2.8094   24.2384 C   0  0  0  0  0  0  0  0  0  0  0  0
    4.9066    3.4855   24.4428 C   0  0  0  0  0  0  0  0  0  0  0  0
    4.6792    4.2898   23.4045 N   0  0  0  0  0  0  0  0  0  0  0  0
    5.7200    4.0826   22.6263 N   0  0  0  0  0  0  0  0  0  0  0  0
    5.8364    4.6667   21.3104 C   0  0  0  0  0  0  0  0  0  0  0  0
    6.5987    3.1968   23.0594 N   0  0  0  0  0  0  0  0  0  0  0  0
    9.0200    1.2849   24.4363 C   0  0  0  0  0  0  0  0  0  0  0  0
    9.4286    2.3566   24.8604 O   0  0  0  0  0  0  0  0  0  0  0  0
    9.9280    0.2563   23.8208 C   0  0  0  0  0  0  0  0  0  0  0  0
   11.3049    0.4304   23.9702 C   0  0  0  0  0  0  0  0  0  0  0  0
   12.1976   -0.4774   23.4326 C   0  0  0  0  0  0  0  0  0  0  0  0
   11.6723   -1.5699   22.7477 C   0  0  0  0  0  0  0  0  0  0  0  0
   12.5215   -2.4597   22.2050 F   0  0  0  0  0  0  0  0  0  0  0  0
   10.3164   -1.7727   22.5801 C   0  0  0  0  0  0  0  0  0  0  0  0
    9.4149   -0.8442   23.1121 C   0  0  0  0  0  0  0  0  0  0  0  0
    6.2474   -2.9447   24.1455 H   0  0  0  0  0  0  0  0  0  0  0  0
    7.9369   -3.4307   24.1549 H   0  0  0  0  0  0  0  0  0  0  0  0
    6.7857   -4.2641   23.1026 H   0  0  0  0  0  0  0  0  0  0  0  0
    8.0836   -2.7271   21.7174 H   0  0  0  0  0  0  0  0  0  0  0  0
    5.9404   -2.6716   20.7542 H   0  0  0  0  0  0  0  0  0  0  0  0
    5.2279   -1.8518   22.1531 H   0  0  0  0  0  0  0  0  0  0  0  0
    7.1384   -1.0288   18.4067 H   0  0  0  0  0  0  0  0  0  0  0  0
    4.3344    1.4363   16.6606 H   0  0  0  0  0  0  0  0  0  0  0  0
    2.7099    2.7423   18.0360 H   0  0  0  0  0  0  0  0  0  0  0  0
    1.7839    3.3282   20.2544 H   0  0  0  0  0  0  0  0  0  0  0  0
    2.7326    2.2964   22.3131 H   0  0  0  0  0  0  0  0  0  0  0  0
    4.6346    0.7276   22.1553 H   0  0  0  0  0  0  0  0  0  0  0  0
    6.1407   -0.3049   23.9323 H   0  0  0  0  0  0  0  0  0  0  0  0
    7.3744   -1.0813   24.9495 H   0  0  0  0  0  0  0  0  0  0  0  0
    6.0055    1.2303   25.6645 H   0  0  0  0  0  0  0  0  0  0  0  0
    7.3222    2.3518   25.9562 H   0  0  0  0  0  0  0  0  0  0  0  0
    4.2239    3.4118   25.2739 H   0  0  0  0  0  0  0  0  0  0  0  0
    6.8751    4.9479   21.1416 H   0  0  0  0  0  0  0  0  0  0  0  0
    5.4959    3.9539   20.5532 H   0  0  0  0  0  0  0  0  0  0  0  0
    5.2068    5.5506   21.2815 H   0  0  0  0  0  0  0  0  0  0  0  0
   11.6608    1.2944   24.5197 H   0  0  0  0  0  0  0  0  0  0  0  0
   13.2754   -0.3563   23.5170 H   0  0  0  0  0  0  0  0  0  0  0  0
    9.9834   -2.6543   22.0404 H   0  0  0  0  0  0  0  0  0  0  0  0
  1  2  1  0
  2  3  1  0
  3  4  1  0
  4  5  1  0
  5  6  2  0
  6  7  1  0
  7  8  2  0
  8  9  1  0
  9 10  2  0
 10 11  1  0
 11 12  2  0
 12 13  1  0
 13 14  2  0
  4 15  1  0
 15 16  2  0
 15 17  1  0
 17 18  1  1
 18 19  1  0
 19 20  1  0
 20 21  1  0
 21 22  1  0
 22 23  2  0
 23 24  1  0
 24 25  1  0
 24 26  1  0
 19 27  1  0
 27 28  2  0
 27 29  1  0
 29 30  2  0
 30 31  1  0
 31 32  2  0
 32 33  1  0
 32 34  1  0
 34 35  2  0
 17  2  1  0
 26 21  2  0
 35 29  1  0
 14  5  1  0
 35 17  1  0
 14  9  1  0
  1 36  1  0
  1 37  1  0
  1 38  1  0
  2 39  1  6
  3 40  1  0
  3 41  1  0
  6 42  1  0
  8 43  1  0
 10 44  1  0
 11 45  1  0
 12 46  1  0
 13 47  1  0
 18 48  1  0
 18 49  1  0
 20 50  1  0
 20 51  1  0
 22 52  1  0
 25 53  1  0
 25 54  1  0
 25 55  1  0
 30 56  1  0
 31 57  1  0
 34 58  1  0
M  END
>  <RMSD>  (68) 
0.1730562309261895

$$$$

     RDKit          3D

 51 54  0  0  0  0  0  0  0  0999 V2000
    5.2982   -4.9833   28.1565 N   0  0  0  0  0  0  0  0  0  0  0  0
    5.7463   -5.0638   27.0953 C   0  0  0  0  0  0  0  0  0  0  0  0
    6.2791   -5.1549   25.7307 C   0  0  0  0  0  0  0  0  0  0  0  0
    6.5724   -3.8114   25.0774 C   0  0  0  0  0  0  0  0  0  0  0  0
    5.9239   -2.6330   25.4452 C   0  0  0  0  0  0  0  0  0  0  0  0
    6.2375   -1.4234   24.8259 C   0  0  0  0  0  0  0  0  0  0  0  0
    7.1839   -1.3745   23.7978 C   0  0  0  0  0  0  0  0  0  0  0  0
    7.5388   -0.1256   23.1881 N   0  0  0  0  0  0  0  0  0  0  0  0
    8.3227    0.8298   23.9712 C   0  0  0  0  0  0  0  0  0  0  0  0
    9.8352    0.7468   23.7669 C   0  0  0  0  0  0  0  0  0  0  0  0
   10.6440    1.8561   24.0321 C   0  0  0  0  0  0  0  0  0  0  0  0
   12.0216    1.7930   23.8289 C   0  0  0  0  0  0  0  0  0  0  0  0
   12.6193    0.6304   23.3542 C   0  0  0  0  0  0  0  0  0  0  0  0
   11.8166   -0.4783   23.1299 C   0  0  0  0  0  0  0  0  0  0  0  0
   12.5289   -1.9585   22.5469 Cl  0  0  0  0  0  0  0  0  0  0  0  0
   10.4469   -0.4373   23.3561 C   0  0  0  0  0  0  0  0  0  0  0  0
    7.3280    0.1660   21.8476 C   0  0  0  0  0  0  0  0  0  0  0  0
    7.7995    1.1632   21.3245 O   0  0  0  0  0  0  0  0  0  0  0  0
    6.4585   -0.8166   21.0397 C   0  0  0  0  0  0  0  0  0  0  0  0
    5.7928   -0.1835   19.8457 C   0  0  0  0  0  0  0  0  0  0  0  0
    6.2272   -0.4242   18.5709 C   0  0  0  0  0  0  0  0  0  0  0  0
    5.7470    0.1515   17.4303 N   0  0  0  0  0  0  0  0  0  0  0  0
    4.7807    1.0168   17.5796 C   0  0  0  0  0  0  0  0  0  0  0  0
    4.2108    1.3598   18.8375 C   0  0  0  0  0  0  0  0  0  0  0  0
    3.1595    2.3062   18.9461 C   0  0  0  0  0  0  0  0  0  0  0  0
    2.6290    2.6283   20.1662 C   0  0  0  0  0  0  0  0  0  0  0  0
    3.1263    2.0118   21.3353 C   0  0  0  0  0  0  0  0  0  0  0  0
    4.1425    1.0917   21.2595 C   0  0  0  0  0  0  0  0  0  0  0  0
    4.7191    0.7444   20.0070 C   0  0  0  0  0  0  0  0  0  0  0  0
    7.7793   -2.5678   23.3839 C   0  0  0  0  0  0  0  0  0  0  0  0
    7.5042   -3.7562   24.0463 C   0  0  0  0  0  0  0  0  0  0  0  0
    5.5474   -5.7274   25.1459 H   0  0  0  0  0  0  0  0  0  0  0  0
    7.1876   -5.7676   25.7615 H   0  0  0  0  0  0  0  0  0  0  0  0
    5.1872   -2.6528   26.2466 H   0  0  0  0  0  0  0  0  0  0  0  0
    5.7583   -0.5056   25.1609 H   0  0  0  0  0  0  0  0  0  0  0  0
    7.9871    1.8447   23.7342 H   0  0  0  0  0  0  0  0  0  0  0  0
    8.0936    0.6544   25.0291 H   0  0  0  0  0  0  0  0  0  0  0  0
   10.2020    2.7767   24.4144 H   0  0  0  0  0  0  0  0  0  0  0  0
   12.6399    2.6610   24.0461 H   0  0  0  0  0  0  0  0  0  0  0  0
   13.6875    0.5784   23.1699 H   0  0  0  0  0  0  0  0  0  0  0  0
    9.8810   -1.3527   23.2318 H   0  0  0  0  0  0  0  0  0  0  0  0
    5.7205   -1.2660   21.7129 H   0  0  0  0  0  0  0  0  0  0  0  0
    7.1176   -1.6380   20.7184 H   0  0  0  0  0  0  0  0  0  0  0  0
    7.0194   -1.1472   18.3896 H   0  0  0  0  0  0  0  0  0  0  0  0
    4.3788    1.5166   16.6934 H   0  0  0  0  0  0  0  0  0  0  0  0
    2.7884    2.7861   18.0410 H   0  0  0  0  0  0  0  0  0  0  0  0
    1.8294    3.3615   20.2539 H   0  0  0  0  0  0  0  0  0  0  0  0
    2.7107    2.2751   22.3030 H   0  0  0  0  0  0  0  0  0  0  0  0
    4.5222    0.6343   22.1690 H   0  0  0  0  0  0  0  0  0  0  0  0
    8.4769   -2.5776   22.5498 H   0  0  0  0  0  0  0  0  0  0  0  0
    8.0483   -4.6516   23.7671 H   0  0  0  0  0  0  0  0  0  0  0  0
  1  2  3  0
  2  3  1  0
  3  4  1  0
  4  5  2  0
  5  6  1  0
  6  7  2  0
  7  8  1  0
  8  9  1  0
  9 10  1  0
 10 11  2  0
 11 12  1  0
 12 13  2  0
 13 14  1  0
 14 15  1  0
 14 16  2  0
  8 17  1  0
 17 18  2  0
 17 19  1  0
 19 20  1  0
 20 21  2  0
 21 22  1  0
 22 23  2  0
 23 24  1  0
 24 25  2  0
 25 26  1  0
 26 27  2  0
 27 28  1  0
 28 29  2  0
  7 30  1  0
 30 31  2  0
 31  4  1  0
 16 10  1  0
 29 20  1  0
 29 24  1  0
  3 32  1  0
  3 33  1  0
  5 34  1  0
  6 35  1  0
  9 36  1  0
  9 37  1  0
 11 38  1  0
 12 39  1  0
 13 40  1  0
 16 41  1  0
 19 42  1  0
 19 43  1  0
 21 44  1  0
 23 45  1  0
 25 46  1  0
 26 47  1  0
 27 48  1  0
 28 49  1  0
 30 50  1  0
 31 51  1  0
M  END
>  <RMSD>  (69) 
0.03254426182383731

$$$$

     RDKit          3D

 46 47  0  0  0  0  0  0  0  0999 V2000
   -6.8653   -3.3418  -21.4138 C   0  0  0  0  0  0  0  0  0  0  0  0
   -6.9914   -3.1153  -22.9188 C   0  0  2  0  0  0  0  0  0  0  0  0
   -6.4101   -1.8295  -23.2996 N   0  0  0  0  0  0  0  0  0  0  0  0
   -6.3266   -1.4904  -24.6222 C   0  0  0  0  0  0  0  0  0  0  0  0
   -6.4245   -2.3202  -25.5089 O   0  0  0  0  0  0  0  0  0  0  0  0
   -6.0935   -0.0131  -24.9485 C   0  0  0  0  0  0  0  0  0  0  0  0
   -7.3395    0.7315  -24.7960 O   0  0  0  0  0  0  0  0  0  0  0  0
   -7.1482    2.3154  -25.1630 S   0  0  0  0  0  0  0  0  0  0  0  0
   -8.6434    2.9068  -24.8903 N   0  0  0  0  0  0  0  0  0  0  0  0
   -6.2632    2.8932  -24.1812 O   0  0  0  0  0  0  0  0  0  0  0  0
   -6.8893    2.4339  -26.5784 O   0  0  0  0  0  0  0  0  0  0  0  0
   -8.4580   -3.2137  -23.3415 C   0  0  0  0  0  0  0  0  0  0  0  0
   -8.9510   -4.4080  -23.8694 C   0  0  0  0  0  0  0  0  0  0  0  0
  -10.2937   -4.4829  -24.2227 C   0  0  0  0  0  0  0  0  0  0  0  0
  -10.9054   -5.9491  -24.9378 Cl  0  0  0  0  0  0  0  0  0  0  0  0
  -11.1517   -3.4099  -24.0305 C   0  0  0  0  0  0  0  0  0  0  0  0
  -10.6719   -2.2047  -23.5023 C   0  0  0  0  0  0  0  0  0  0  0  0
  -11.5847   -1.0372  -23.3467 C   0  0  0  0  0  0  0  0  0  0  0  0
  -12.9186   -1.2426  -22.9738 C   0  0  0  0  0  0  0  0  0  0  0  0
  -13.8183   -0.1929  -22.8686 C   0  0  0  0  0  0  0  0  0  0  0  0
  -13.3735    1.0994  -23.1334 C   0  0  0  0  0  0  0  0  0  0  0  0
  -14.5324    2.4508  -23.0629 S   0  0  0  0  0  0  0  0  0  0  0  0
  -15.1385    2.6437  -24.5926 N   0  0  0  0  0  0  0  0  0  0  0  0
  -15.6486    2.0389  -22.2377 O   0  0  0  0  0  0  0  0  0  0  0  0
  -13.7775    3.6665  -22.8186 O   0  0  0  0  0  0  0  0  0  0  0  0
  -12.0464    1.3389  -23.4891 C   0  0  0  0  0  0  0  0  0  0  0  0
  -11.1565    0.2765  -23.5932 C   0  0  0  0  0  0  0  0  0  0  0  0
   -9.3182   -2.1294  -23.1649 C   0  0  0  0  0  0  0  0  0  0  0  0
   -7.2708   -4.3263  -21.1559 H   0  0  0  0  0  0  0  0  0  0  0  0
   -7.4452   -2.5910  -20.8602 H   0  0  0  0  0  0  0  0  0  0  0  0
   -5.8212   -3.3089  -21.0843 H   0  0  0  0  0  0  0  0  0  0  0  0
   -6.4452   -3.9007  -23.4540 H   0  0  0  0  0  0  0  0  0  0  0  0
   -6.2473   -1.1372  -22.5842 H   0  0  0  0  0  0  0  0  0  0  0  0
   -5.3374    0.4480  -24.3042 H   0  0  0  0  0  0  0  0  0  0  0  0
   -5.7829    0.0426  -25.9947 H   0  0  0  0  0  0  0  0  0  0  0  0
   -9.3369    2.5507  -25.5382 H   0  0  0  0  0  0  0  0  0  0  0  0
   -8.8945    2.8975  -23.9090 H   0  0  0  0  0  0  0  0  0  0  0  0
   -8.3092   -5.2766  -24.0107 H   0  0  0  0  0  0  0  0  0  0  0  0
  -12.1910   -3.5065  -24.3267 H   0  0  0  0  0  0  0  0  0  0  0  0
  -13.2523   -2.2461  -22.7314 H   0  0  0  0  0  0  0  0  0  0  0  0
  -14.8544   -0.3714  -22.5915 H   0  0  0  0  0  0  0  0  0  0  0  0
  -15.6695    1.8413  -24.9095 H   0  0  0  0  0  0  0  0  0  0  0  0
  -14.4211    2.9684  -25.2310 H   0  0  0  0  0  0  0  0  0  0  0  0
  -11.7216    2.3614  -23.6690 H   0  0  0  0  0  0  0  0  0  0  0  0
  -10.1186    0.4605  -23.8735 H   0  0  0  0  0  0  0  0  0  0  0  0
   -8.9224   -1.1983  -22.7590 H   0  0  0  0  0  0  0  0  0  0  0  0
  1  2  1  0
  2  3  1  0
  3  4  1  0
  4  5  2  0
  4  6  1  0
  6  7  1  0
  7  8  1  0
  8  9  1  0
  8 10  2  0
  8 11  2  0
  2 12  1  0
 12 13  2  0
 13 14  1  0
 14 15  1  0
 14 16  2  0
 16 17  1  0
 17 18  1  0
 18 19  2  0
 19 20  1  0
 20 21  2  0
 21 22  1  0
 22 23  1  0
 22 24  2  0
 22 25  2  0
 21 26  1  0
 26 27  2  0
 17 28  2  0
 28 12  1  0
 27 18  1  0
  1 29  1  0
  1 30  1  0
  1 31  1  0
  2 32  1  6
  3 33  1  0
  6 34  1  0
  6 35  1  0
  9 36  1  0
  9 37  1  0
 13 38  1  0
 16 39  1  0
 19 40  1  0
 20 41  1  0
 23 42  1  0
 23 43  1  0
 26 44  1  0
 27 45  1  0
 28 46  1  0
M  END
>  <RMSD>  (70) 
0.0347668856784269

$$$$

     RDKit          3D

 66 70  0  0  0  0  0  0  0  0999 V2000
   -6.7626    2.6526  -23.2209 C   0  0  0  0  0  0  0  0  0  0  0  0
   -7.3112    1.4752  -23.8585 N   0  0  0  0  0  0  0  0  0  0  0  0
   -6.8326    1.0653  -25.0526 C   0  0  0  0  0  0  0  0  0  0  0  0
   -6.0161    1.6983  -25.7053 O   0  0  0  0  0  0  0  0  0  0  0  0
   -7.3278   -0.2854  -25.5808 C   0  0  0  0  0  0  0  0  0  0  0  0
   -8.1462   -1.0807  -24.6886 N   0  0  0  0  0  0  0  0  0  0  0  0
   -7.5820   -2.2899  -24.1209 C   0  0  0  0  0  0  0  0  0  0  0  0
   -8.2306   -2.6354  -22.7549 C   0  0  2  0  0  0  0  0  0  0  0  0
   -7.8763   -1.5343  -21.7256 C   0  0  0  0  0  0  0  0  0  0  0  0
   -8.4077   -0.4496  -21.5918 O   0  0  0  0  0  0  0  0  0  0  0  0
   -6.8122   -1.9816  -20.9708 N   0  0  0  0  0  0  0  0  0  0  0  0
   -6.1757   -1.1559  -20.0041 C   0  0  0  0  0  0  0  0  0  0  0  0
   -6.5468   -1.2430  -18.6874 C   0  0  0  0  0  0  0  0  0  0  0  0
   -6.0146   -0.5009  -17.6826 N   0  0  0  0  0  0  0  0  0  0  0  0
   -5.0748    0.3595  -18.0001 C   0  0  0  0  0  0  0  0  0  0  0  0
   -4.5717    0.5407  -19.3217 C   0  0  0  0  0  0  0  0  0  0  0  0
   -3.5537    1.4877  -19.6297 C   0  0  0  0  0  0  0  0  0  0  0  0
   -3.0982    1.6214  -20.9139 C   0  0  0  0  0  0  0  0  0  0  0  0
   -3.6271    0.8176  -21.9514 C   0  0  0  0  0  0  0  0  0  0  0  0
   -4.6206   -0.0908  -21.6827 C   0  0  0  0  0  0  0  0  0  0  0  0
   -5.1274   -0.2480  -20.3617 C   0  0  0  0  0  0  0  0  0  0  0  0
   -6.3466   -3.3043  -21.3515 C   0  0  0  0  0  0  0  0  0  0  0  0
   -7.5628   -3.8707  -22.1021 C   0  0  2  0  0  0  0  0  0  0  0  0
   -7.2633   -5.0432  -23.0331 C   0  0  0  0  0  0  0  0  0  0  0  0
   -6.9218   -6.1905  -22.2900 O   0  0  0  0  0  0  0  0  0  0  0  0
   -5.5457   -6.5387  -22.2898 C   0  0  0  0  0  0  0  0  0  0  0  0
   -5.2178   -7.4236  -23.4830 C   0  0  0  0  0  0  0  0  0  0  0  0
   -5.2449   -7.2304  -20.9735 C   0  0  0  0  0  0  0  0  0  0  0  0
   -9.7244   -2.7146  -22.9789 C   0  0  0  0  0  0  0  0  0  0  0  0
  -10.5500   -3.5895  -22.2619 C   0  0  0  0  0  0  0  0  0  0  0  0
  -11.9247   -3.5086  -22.3986 C   0  0  0  0  0  0  0  0  0  0  0  0
  -12.9263   -4.5697  -21.4480 Cl  0  0  0  0  0  0  0  0  0  0  0  0
  -12.5238   -2.5822  -23.2553 C   0  0  0  0  0  0  0  0  0  0  0  0
  -11.7104   -1.7298  -23.9809 C   0  0  0  0  0  0  0  0  0  0  0  0
  -10.3221   -1.7920  -23.8534 C   0  0  0  0  0  0  0  0  0  0  0  0
   -9.4916   -0.8357  -24.6617 C   0  0  0  0  0  0  0  0  0  0  0  0
   -9.9736    0.1243  -25.2468 O   0  0  0  0  0  0  0  0  0  0  0  0
   -6.8666    3.5433  -23.8491 H   0  0  0  0  0  0  0  0  0  0  0  0
   -7.2927    2.8069  -22.2785 H   0  0  0  0  0  0  0  0  0  0  0  0
   -5.6991    2.5099  -22.9991 H   0  0  0  0  0  0  0  0  0  0  0  0
   -8.1040    1.0220  -23.4279 H   0  0  0  0  0  0  0  0  0  0  0  0
   -6.4313   -0.8598  -25.8358 H   0  0  0  0  0  0  0  0  0  0  0  0
   -7.8649   -0.1086  -26.5189 H   0  0  0  0  0  0  0  0  0  0  0  0
   -7.7173   -3.1292  -24.8202 H   0  0  0  0  0  0  0  0  0  0  0  0
   -6.5066   -2.1322  -23.9846 H   0  0  0  0  0  0  0  0  0  0  0  0
   -7.3306   -1.9366  -18.3904 H   0  0  0  0  0  0  0  0  0  0  0  0
   -4.6568    0.9648  -17.1926 H   0  0  0  0  0  0  0  0  0  0  0  0
   -3.1544    2.1092  -18.8293 H   0  0  0  0  0  0  0  0  0  0  0  0
   -2.3300    2.3515  -21.1556 H   0  0  0  0  0  0  0  0  0  0  0  0
   -3.2750    0.9425  -22.9736 H   0  0  0  0  0  0  0  0  0  0  0  0
   -5.0341   -0.7002  -22.4826 H   0  0  0  0  0  0  0  0  0  0  0  0
   -6.0795   -3.8869  -20.4653 H   0  0  0  0  0  0  0  0  0  0  0  0
   -5.4556   -3.2736  -22.0051 H   0  0  0  0  0  0  0  0  0  0  0  0
   -8.2286   -4.2564  -21.3309 H   0  0  0  0  0  0  0  0  0  0  0  0
   -8.1516   -5.2755  -23.6411 H   0  0  0  0  0  0  0  0  0  0  0  0
   -6.4543   -4.7680  -23.7285 H   0  0  0  0  0  0  0  0  0  0  0  0
   -4.9464   -5.6193  -22.3475 H   0  0  0  0  0  0  0  0  0  0  0  0
   -4.1594   -7.7036  -23.4735 H   0  0  0  0  0  0  0  0  0  0  0  0
   -5.4308   -6.9165  -24.4285 H   0  0  0  0  0  0  0  0  0  0  0  0
   -5.8216   -8.3347  -23.4454 H   0  0  0  0  0  0  0  0  0  0  0  0
   -4.1809   -7.4865  -20.9156 H   0  0  0  0  0  0  0  0  0  0  0  0
   -5.4887   -6.5794  -20.1281 H   0  0  0  0  0  0  0  0  0  0  0  0
   -5.8262   -8.1527  -20.8773 H   0  0  0  0  0  0  0  0  0  0  0  0
  -10.1318   -4.3365  -21.5941 H   0  0  0  0  0  0  0  0  0  0  0  0
  -13.6075   -2.5331  -23.3302 H   0  0  0  0  0  0  0  0  0  0  0  0
  -12.1416   -0.9986  -24.6571 H   0  0  0  0  0  0  0  0  0  0  0  0
  1  2  1  0
  2  3  1  0
  3  4  2  0
  3  5  1  0
  5  6  1  0
  6  7  1  0
  8  7  1  6
  8  9  1  0
  9 10  2  0
  9 11  1  0
 11 12  1  0
 12 13  2  0
 13 14  1  0
 14 15  2  0
 15 16  1  0
 16 17  2  0
 17 18  1  0
 18 19  2  0
 19 20  1  0
 20 21  2  0
 11 22  1  0
 22 23  1  0
 23 24  1  0
 24 25  1  0
 25 26  1  0
 26 27  1  0
 26 28  1  0
  8 29  1  0
 29 30  2  0
 30 31  1  0
 31 32  1  0
 31 33  2  0
 33 34  1  0
 34 35  2  0
 35 36  1  0
 36 37  2  0
 36  6  1  0
 23  8  1  0
 35 29  1  0
 21 12  1  0
 21 16  1  0
  1 38  1  0
  1 39  1  0
  1 40  1  0
  2 41  1  0
  5 42  1  0
  5 43  1  0
  7 44  1  0
  7 45  1  0
 13 46  1  0
 15 47  1  0
 17 48  1  0
 18 49  1  0
 19 50  1  0
 20 51  1  0
 22 52  1  0
 22 53  1  0
 23 54  1  1
 24 55  1  0
 24 56  1  0
 26 57  1  0
 27 58  1  0
 27 59  1  0
 27 60  1  0
 28 61  1  0
 28 62  1  0
 28 63  1  0
 30 64  1  0
 33 65  1  0
 34 66  1  0
M  END
>  <RMSD>  (71) 
0.05689016731596934

$$$$

     RDKit          3D

 40 42  0  0  0  0  0  0  0  0999 V2000
   -9.0088   -2.5796  -20.0764 O   0  0  0  0  0  0  0  0  0  0  0  0
   -7.9851   -2.7094  -20.7338 C   0  0  0  0  0  0  0  0  0  0  0  0
   -7.1782   -1.4918  -21.1187 C   0  0  0  0  0  0  0  0  0  0  0  0
   -6.2720   -1.0082  -20.0229 C   0  0  0  0  0  0  0  0  0  0  0  0
   -6.5644   -1.2107  -18.7015 C   0  0  0  0  0  0  0  0  0  0  0  0
   -5.9226   -0.6055  -17.6660 N   0  0  0  0  0  0  0  0  0  0  0  0
   -4.9776    0.2478  -17.9788 C   0  0  0  0  0  0  0  0  0  0  0  0
   -4.5579    0.5458  -19.3080 C   0  0  0  0  0  0  0  0  0  0  0  0
   -3.6300    1.5700  -19.6491 C   0  0  0  0  0  0  0  0  0  0  0  0
   -3.1633    1.6613  -20.9332 C   0  0  0  0  0  0  0  0  0  0  0  0
   -3.6012    0.7644  -21.9283 C   0  0  0  0  0  0  0  0  0  0  0  0
   -4.5740   -0.1540  -21.6463 C   0  0  0  0  0  0  0  0  0  0  0  0
   -5.1339   -0.2191  -20.3453 C   0  0  0  0  0  0  0  0  0  0  0  0
   -7.5345   -3.9499  -21.1310 N   0  0  0  0  0  0  0  0  0  0  0  0
   -8.5815   -4.9628  -21.2420 C   0  0  0  0  0  0  0  0  0  0  0  0
   -9.3746   -4.7194  -22.5378 C   0  0  0  0  0  0  0  0  0  0  0  0
   -8.4484   -4.6362  -23.7739 C   0  0  0  0  0  0  0  0  0  0  0  0
   -9.1952   -4.1576  -25.0054 C   0  0  0  0  0  0  0  0  0  0  0  0
   -8.3766   -4.0213  -26.0689 F   0  0  0  0  0  0  0  0  0  0  0  0
   -9.7525   -2.9429  -24.8034 F   0  0  0  0  0  0  0  0  0  0  0  0
  -10.1900   -4.9884  -25.3677 F   0  0  0  0  0  0  0  0  0  0  0  0
   -7.2538   -3.6937  -23.5469 C   0  0  0  0  0  0  0  0  0  0  0  0
   -6.5849   -4.0668  -22.2303 C   0  0  0  0  0  0  0  0  0  0  0  0
   -6.6148   -1.6534  -22.0357 H   0  0  0  0  0  0  0  0  0  0  0  0
   -7.9399   -0.7346  -21.3387 H   0  0  0  0  0  0  0  0  0  0  0  0
   -7.4013   -1.8464  -18.4392 H   0  0  0  0  0  0  0  0  0  0  0  0
   -4.4847    0.7470  -17.1469 H   0  0  0  0  0  0  0  0  0  0  0  0
   -3.3095    2.2839  -18.8935 H   0  0  0  0  0  0  0  0  0  0  0  0
   -2.4480    2.4345  -21.1964 H   0  0  0  0  0  0  0  0  0  0  0  0
   -3.1782    0.8107  -22.9291 H   0  0  0  0  0  0  0  0  0  0  0  0
   -4.8985   -0.8398  -22.4229 H   0  0  0  0  0  0  0  0  0  0  0  0
   -9.2132   -4.8551  -20.3609 H   0  0  0  0  0  0  0  0  0  0  0  0
   -8.1087   -5.9558  -21.2219 H   0  0  0  0  0  0  0  0  0  0  0  0
  -10.1361   -5.4953  -22.6712 H   0  0  0  0  0  0  0  0  0  0  0  0
   -9.9064   -3.7653  -22.4320 H   0  0  0  0  0  0  0  0  0  0  0  0
   -8.0775   -5.6419  -24.0149 H   0  0  0  0  0  0  0  0  0  0  0  0
   -6.5343   -3.7565  -24.3705 H   0  0  0  0  0  0  0  0  0  0  0  0
   -7.6232   -2.6613  -23.5273 H   0  0  0  0  0  0  0  0  0  0  0  0
   -5.6873   -3.4833  -22.0197 H   0  0  0  0  0  0  0  0  0  0  0  0
   -6.2998   -5.1241  -22.2849 H   0  0  0  0  0  0  0  0  0  0  0  0
  1  2  2  0
  2  3  1  0
  3  4  1  0
  4  5  2  0
  5  6  1  0
  6  7  2  0
  7  8  1  0
  8  9  2  0
  9 10  1  0
 10 11  2  0
 11 12  1  0
 12 13  2  0
  2 14  1  0
 14 15  1  0
 15 16  1  0
 16 17  1  0
 17 18  1  0
 18 19  1  0
 18 20  1  0
 18 21  1  0
 17 22  1  0
 22 23  1  0
 13  4  1  0
 23 14  1  0
 13  8  1  0
  3 24  1  0
  3 25  1  0
  5 26  1  0
  7 27  1  0
  9 28  1  0
 10 29  1  0
 11 30  1  0
 12 31  1  0
 15 32  1  0
 15 33  1  0
 16 34  1  0
 16 35  1  0
 17 36  1  0
 22 37  1  0
 22 38  1  0
 23 39  1  0
 23 40  1  0
M  END
>  <RMSD>  (72) 
0.16414861333414302

$$$$

     RDKit          3D

 25 28  0  0  0  0  0  0  0  0999 V2000
   -8.4981    0.7365  -21.4579 O   0  0  0  0  0  0  0  0  0  0  0  0
   -8.5220   -0.4353  -21.7869 C   0  0  0  0  0  0  0  0  0  0  0  0
   -7.4713   -1.4225  -21.2706 C   0  0  0  0  0  0  0  0  0  0  0  0
   -6.6061   -0.8342  -20.1910 C   0  0  0  0  0  0  0  0  0  0  0  0
   -6.9124   -1.0516  -18.8763 C   0  0  0  0  0  0  0  0  0  0  0  0
   -6.2382   -0.5507  -17.8044 N   0  0  0  0  0  0  0  0  0  0  0  0
   -5.1965    0.2052  -18.0717 C   0  0  0  0  0  0  0  0  0  0  0  0
   -4.7578    0.5208  -19.3852 C   0  0  0  0  0  0  0  0  0  0  0  0
   -3.6267    1.3496  -19.6166 C   0  0  0  0  0  0  0  0  0  0  0  0
   -3.2330    1.6442  -20.8942 C   0  0  0  0  0  0  0  0  0  0  0  0
   -3.9497    1.1259  -21.9952 C   0  0  0  0  0  0  0  0  0  0  0  0
   -5.0503    0.3246  -21.7975 C   0  0  0  0  0  0  0  0  0  0  0  0
   -5.4821   -0.0033  -20.4829 C   0  0  0  0  0  0  0  0  0  0  0  0
   -9.5121   -0.9469  -22.5901 N   0  0  0  0  0  0  0  0  0  0  0  0
  -10.6193   -0.0577  -22.9152 C   0  0  0  0  0  0  0  0  0  0  0  0
  -11.9309   -0.8041  -22.7211 C   0  0  0  0  0  0  0  0  0  0  0  0
  -11.9956   -2.1060  -23.5133 C   0  0  0  0  0  0  0  0  0  0  0  0
  -10.7669   -2.9553  -23.1718 C   0  0  0  0  0  0  0  0  0  0  0  0
   -9.4468   -2.1947  -23.3630 C   0  0  1  0  0  0  0  0  0  0  0  0
   -9.0944   -1.9582  -24.8395 C   0  0  0  0  0  0  0  0  0  0  0  0
   -9.7433   -2.6108  -25.8960 C   0  0  0  0  0  0  0  0  0  0  0  0
   -9.3300   -2.4365  -27.2145 C   0  0  0  0  0  0  0  0  0  0  0  0
   -8.3418   -1.5049  -27.5126 C   0  0  0  0  0  0  0  0  0  0  0  0
   -7.7006   -0.8321  -26.4748 C   0  0  0  0  0  0  0  0  0  0  0  0
   -8.0458   -1.0848  -25.1513 C   0  0  0  0  0  0  0  0  0  0  0  0
  1  2  2  0
  2  3  1  0
  3  4  1  0
  4  5  2  0
  5  6  1  0
  6  7  2  0
  7  8  1  0
  8  9  2  0
  9 10  1  0
 10 11  2  0
 11 12  1  0
 12 13  2  0
  2 14  1  0
 14 15  1  0
 15 16  1  0
 16 17  1  0
 17 18  1  0
 18 19  1  0
 19 20  1  6
 20 21  2  0
 21 22  1  0
 22 23  2  0
 23 24  1  0
 24 25  2  0
 13  4  1  0
 19 14  1  0
 25 20  1  0
 13  8  1  0
M  END
>  <cnnaffinities>  (73) 
[5.03309, 5.2529, 5.27416, 5.51038, 5.51253]

>  <score>  (73) 
5.03309

>  <index>  (73) 
36

>  <Smiles>  (73) 
O=C(C(c1c(nc(c2c(c(c(c(c12)[H])[H])[H])[H])[H])[H])([H])[H])N1C(C(C(C([C@]1(c1c(c(c(c(c1[H])[H])[H])[H])[H])[H])([H])[H])([H])[H])([H])[H])([H])[H]

>  <h>  (73) 
<NA>

>  <Training>  (73) 
True

>  <Success>  (73) 
True

>  <enamine_searched>  (73) 
False

>  <enamine_id>  (73) 
nan

$$$$

     RDKit          3D

 59 64  0  0  0  0  0  0  0  0999 V2000
    7.0656   -3.2849   23.5078 C   0  0  0  0  0  0  0  0  0  0  0  0
    7.3540   -2.2840   22.3985 C   0  0  1  0  0  0  0  0  0  0  0  0
    6.1401   -1.9259   21.5324 C   0  0  0  0  0  0  0  0  0  0  0  0
    6.5317   -0.6603   20.9409 N   0  0  0  0  0  0  0  0  0  0  0  0
    5.8826   -0.0593   19.8320 C   0  0  0  0  0  0  0  0  0  0  0  0
    6.3048   -0.3475   18.5580 C   0  0  0  0  0  0  0  0  0  0  0  0
    5.7650    0.1743   17.4279 N   0  0  0  0  0  0  0  0  0  0  0  0
    4.7614    1.0124   17.5655 C   0  0  0  0  0  0  0  0  0  0  0  0
    4.2011    1.3803   18.8260 C   0  0  0  0  0  0  0  0  0  0  0  0
    3.1173    2.2980   18.9378 C   0  0  0  0  0  0  0  0  0  0  0  0
    2.6120    2.6211   20.1703 C   0  0  0  0  0  0  0  0  0  0  0  0
    3.1540    2.0460   21.3424 C   0  0  0  0  0  0  0  0  0  0  0  0
    4.2113    1.1738   21.2622 C   0  0  0  0  0  0  0  0  0  0  0  0
    4.7631    0.8209   19.9976 C   0  0  0  0  0  0  0  0  0  0  0  0
    7.5443   -0.0255   21.6289 C   0  0  0  0  0  0  0  0  0  0  0  0
    8.0206    1.0420   21.3088 O   0  0  0  0  0  0  0  0  0  0  0  0
    7.9253   -0.9090   22.8454 C   0  0  1  0  0  0  0  0  0  0  0  0
    7.2104   -0.3734   24.1167 C   0  0  0  0  0  0  0  0  0  0  0  0
    7.6758    0.9490   24.4999 N   0  0  0  0  0  0  0  0  0  0  0  0
    6.7417    1.8298   25.1873 C   0  0  0  0  0  0  0  0  0  0  0  0
    6.0841    2.8404   24.2897 C   0  0  0  0  0  0  0  0  0  0  0  0
    6.6928    3.4949   23.2031 C   0  0  0  0  0  0  0  0  0  0  0  0
    5.7341    4.3569   22.7337 C   0  0  0  0  0  0  0  0  0  0  0  0
    4.6412    4.1803   23.5118 N   0  0  0  0  0  0  0  0  0  0  0  0
    3.4228    4.9525   23.4399 C   0  0  0  0  0  0  0  0  0  0  0  0
    4.8337    3.2630   24.4736 N   0  0  0  0  0  0  0  0  0  0  0  0
    9.0024    1.2869   24.4397 C   0  0  0  0  0  0  0  0  0  0  0  0
    9.4237    2.3583   24.8590 O   0  0  0  0  0  0  0  0  0  0  0  0
    9.9194    0.2579   23.8279 C   0  0  0  0  0  0  0  0  0  0  0  0
   11.3000    0.4318   23.9772 C   0  0  0  0  0  0  0  0  0  0  0  0
   12.1906   -0.4757   23.4372 C   0  0  0  0  0  0  0  0  0  0  0  0
   11.6699   -1.5676   22.7528 C   0  0  0  0  0  0  0  0  0  0  0  0
   12.5171   -2.4574   22.2105 F   0  0  0  0  0  0  0  0  0  0  0  0
   10.3143   -1.7715   22.5846 C   0  0  0  0  0  0  0  0  0  0  0  0
    9.4127   -0.8429   23.1159 C   0  0  0  0  0  0  0  0  0  0  0  0
    6.7847   -4.2607   23.1026 H   0  0  0  0  0  0  0  0  0  0  0  0
    7.9341   -3.4306   24.1575 H   0  0  0  0  0  0  0  0  0  0  0  0
    6.2442   -2.9441   24.1437 H   0  0  0  0  0  0  0  0  0  0  0  0
    8.0772   -2.7373   21.7153 H   0  0  0  0  0  0  0  0  0  0  0  0
    5.9494   -2.6691   20.7560 H   0  0  0  0  0  0  0  0  0  0  0  0
    5.2320   -1.8510   22.1552 H   0  0  0  0  0  0  0  0  0  0  0  0
    7.1403   -1.0273   18.4076 H   0  0  0  0  0  0  0  0  0  0  0  0
    4.3349    1.4409   16.6572 H   0  0  0  0  0  0  0  0  0  0  0  0
    2.7068    2.7450   18.0355 H   0  0  0  0  0  0  0  0  0  0  0  0
    1.7872    3.3260   20.2571 H   0  0  0  0  0  0  0  0  0  0  0  0
    2.7356    2.2982   22.3143 H   0  0  0  0  0  0  0  0  0  0  0  0
    4.6277    0.7253   22.1588 H   0  0  0  0  0  0  0  0  0  0  0  0
    7.3732   -1.0686   24.9520 H   0  0  0  0  0  0  0  0  0  0  0  0
    6.1336   -0.3110   23.9330 H   0  0  0  0  0  0  0  0  0  0  0  0
    5.9758    1.2157   25.6700 H   0  0  0  0  0  0  0  0  0  0  0  0
    7.3010    2.3435   25.9758 H   0  0  0  0  0  0  0  0  0  0  0  0
    7.7033    3.3723   22.8316 H   0  0  0  0  0  0  0  0  0  0  0  0
    5.7610    5.0830   21.9233 H   0  0  0  0  0  0  0  0  0  0  0  0
    2.6084    4.4083   23.9162 H   0  0  0  0  0  0  0  0  0  0  0  0
    3.5253    5.9257   23.9290 H   0  0  0  0  0  0  0  0  0  0  0  0
    3.1653    5.1299   22.3940 H   0  0  0  0  0  0  0  0  0  0  0  0
   11.6643    1.2914   24.5272 H   0  0  0  0  0  0  0  0  0  0  0  0
   13.2686   -0.3535   23.5246 H   0  0  0  0  0  0  0  0  0  0  0  0
    9.9848   -2.6531   22.0445 H   0  0  0  0  0  0  0  0  0  0  0  0
  1  2  1  0
  2  3  1  0
  3  4  1  0
  4  5  1  0
  5  6  2  0
  6  7  1  0
  7  8  2  0
  8  9  1  0
  9 10  2  0
 10 11  1  0
 11 12  2  0
 12 13  1  0
 13 14  2  0
  4 15  1  0
 15 16  2  0
 15 17  1  0
 17 18  1  1
 18 19  1  0
 19 20  1  0
 20 21  1  0
 21 22  1  0
 22 23  2  0
 23 24  1  0
 24 25  1  0
 24 26  1  0
 19 27  1  0
 27 28  2  0
 27 29  1  0
 29 30  2  0
 30 31  1  0
 31 32  2  0
 32 33  1  0
 32 34  1  0
 34 35  2  0
 17  2  1  0
 26 21  2  0
 35 29  1  0
 14  5  1  0
 35 17  1  0
 14  9  1  0
  1 36  1  0
  1 37  1  0
  1 38  1  0
  2 39  1  6
  3 40  1  0
  3 41  1  0
  6 42  1  0
  8 43  1  0
 10 44  1  0
 11 45  1  0
 12 46  1  0
 13 47  1  0
 18 48  1  0
 18 49  1  0
 20 50  1  0
 20 51  1  0
 22 52  1  0
 23 53  1  0
 25 54  1  0
 25 55  1  0
 25 56  1  0
 30 57  1  0
 31 58  1  0
 34 59  1  0
M  END
>  <RMSD>  (74) 
0.17198405220589172

$$$$

     RDKit          3D

 48 51  0  0  0  0  0  0  0  0999 V2000
    6.2334   -6.0577   26.3669 N   0  0  0  0  0  0  0  0  0  0  0  0
    6.4090   -5.0535   25.8149 C   0  0  0  0  0  0  0  0  0  0  0  0
    6.6425   -3.8178   25.1113 C   0  0  0  0  0  0  0  0  0  0  0  0
    5.9892   -2.6392   25.4855 C   0  0  0  0  0  0  0  0  0  0  0  0
    6.2796   -1.4428   24.8380 C   0  0  0  0  0  0  0  0  0  0  0  0
    7.2105   -1.4077   23.7911 C   0  0  0  0  0  0  0  0  0  0  0  0
    7.5673   -0.1630   23.1750 N   0  0  0  0  0  0  0  0  0  0  0  0
    8.3482    0.8067   23.9450 C   0  0  0  0  0  0  0  0  0  0  0  0
    9.8554    0.7343   23.7275 C   0  0  0  0  0  0  0  0  0  0  0  0
   10.6589    1.8443   23.9971 C   0  0  0  0  0  0  0  0  0  0  0  0
   12.0349    1.7894   23.7878 C   0  0  0  0  0  0  0  0  0  0  0  0
   12.6360    0.6299   23.3098 C   0  0  0  0  0  0  0  0  0  0  0  0
   11.8386   -0.4833   23.0891 C   0  0  0  0  0  0  0  0  0  0  0  0
   12.5625   -1.9737   22.5431 Cl  0  0  0  0  0  0  0  0  0  0  0  0
   10.4685   -0.4451   23.3080 C   0  0  0  0  0  0  0  0  0  0  0  0
    7.3477    0.1368   21.8380 C   0  0  0  0  0  0  0  0  0  0  0  0
    7.8255    1.1280   21.3172 O   0  0  0  0  0  0  0  0  0  0  0  0
    6.4598   -0.8272   21.0294 C   0  0  0  0  0  0  0  0  0  0  0  0
    5.7924   -0.1760   19.8450 C   0  0  0  0  0  0  0  0  0  0  0  0
    6.2291   -0.4291   18.5707 C   0  0  0  0  0  0  0  0  0  0  0  0
    5.7476    0.1482   17.4339 N   0  0  0  0  0  0  0  0  0  0  0  0
    4.7771    1.0171   17.5807 C   0  0  0  0  0  0  0  0  0  0  0  0
    4.2034    1.3645   18.8357 C   0  0  0  0  0  0  0  0  0  0  0  0
    3.1529    2.3133   18.9476 C   0  0  0  0  0  0  0  0  0  0  0  0
    2.6276    2.6292   20.1702 C   0  0  0  0  0  0  0  0  0  0  0  0
    3.1274    2.0104   21.3369 C   0  0  0  0  0  0  0  0  0  0  0  0
    4.1431    1.0905   21.2589 C   0  0  0  0  0  0  0  0  0  0  0  0
    4.7146    0.7478   20.0042 C   0  0  0  0  0  0  0  0  0  0  0  0
    7.7989   -2.6050   23.3723 C   0  0  0  0  0  0  0  0  0  0  0  0
    7.5391   -3.7911   24.0403 C   0  0  0  0  0  0  0  0  0  0  0  0
    5.2753   -2.6635   26.3030 H   0  0  0  0  0  0  0  0  0  0  0  0
    5.7845   -0.5283   25.1581 H   0  0  0  0  0  0  0  0  0  0  0  0
    8.1248    0.6329   25.0032 H   0  0  0  0  0  0  0  0  0  0  0  0
    7.9889    1.8097   23.6917 H   0  0  0  0  0  0  0  0  0  0  0  0
   10.2191    2.7596   24.3908 H   0  0  0  0  0  0  0  0  0  0  0  0
   12.6535    2.6556   24.0115 H   0  0  0  0  0  0  0  0  0  0  0  0
   13.7035    0.5826   23.1189 H   0  0  0  0  0  0  0  0  0  0  0  0
    9.9038   -1.3579   23.1685 H   0  0  0  0  0  0  0  0  0  0  0  0
    7.1250   -1.6259   20.6725 H   0  0  0  0  0  0  0  0  0  0  0  0
    5.7359   -1.3014   21.7022 H   0  0  0  0  0  0  0  0  0  0  0  0
    7.0267   -1.1501   18.3937 H   0  0  0  0  0  0  0  0  0  0  0  0
    4.3926    1.5050   16.6827 H   0  0  0  0  0  0  0  0  0  0  0  0
    2.7811    2.7941   18.0437 H   0  0  0  0  0  0  0  0  0  0  0  0
    1.8300    3.3638   20.2568 H   0  0  0  0  0  0  0  0  0  0  0  0
    2.7116    2.2738   22.3032 H   0  0  0  0  0  0  0  0  0  0  0  0
    4.5265    0.6269   22.1642 H   0  0  0  0  0  0  0  0  0  0  0  0
    8.4808   -2.6265   22.5242 H   0  0  0  0  0  0  0  0  0  0  0  0
    8.0454   -4.6982   23.7369 H   0  0  0  0  0  0  0  0  0  0  0  0
  1  2  3  0
  2  3  1  0
  3  4  2  0
  4  5  1  0
  5  6  2  0
  6  7  1  0
  7  8  1  0
  8  9  1  0
  9 10  2  0
 10 11  1  0
 11 12  2  0
 12 13  1  0
 13 14  1  0
 13 15  2  0
  7 16  1  0
 16 17  2  0
 16 18  1  0
 18 19  1  0
 19 20  2  0
 20 21  1  0
 21 22  2  0
 22 23  1  0
 23 24  2  0
 24 25  1  0
 25 26  2  0
 26 27  1  0
 27 28  2  0
  6 29  1  0
 29 30  2  0
 30  3  1  0
 15  9  1  0
 28 19  1  0
 28 23  1  0
  4 31  1  0
  5 32  1  0
  8 33  1  0
  8 34  1  0
 10 35  1  0
 11 36  1  0
 12 37  1  0
 15 38  1  0
 18 39  1  0
 18 40  1  0
 20 41  1  0
 22 42  1  0
 24 43  1  0
 25 44  1  0
 26 45  1  0
 27 46  1  0
 29 47  1  0
 30 48  1  0
M  END
>  <RMSD>  (75) 
0.03150557317060502

$$$$

     RDKit          3D

 72 77  0  0  0  0  0  0  0  0999 V2000
    6.1733    4.1479   22.3071 C   0  0  0  0  0  0  0  0  0  0  0  0
    6.8607    3.1427   23.1367 N   0  0  0  0  0  0  0  0  0  0  0  0
    6.1825    2.9222   24.4372 C   0  0  0  0  0  0  0  0  0  0  0  0
    6.7677    1.7720   25.2937 C   0  0  0  0  0  0  0  0  0  0  0  0
    7.6538    0.8588   24.5944 N   0  0  0  0  0  0  0  0  0  0  0  0
    7.1753   -0.4409   24.1632 C   0  0  0  0  0  0  0  0  0  0  0  0
    7.8755   -0.9098   22.8561 C   0  0  2  0  0  0  0  0  0  0  0  0
    7.4051   -0.0011   21.6976 C   0  0  0  0  0  0  0  0  0  0  0  0
    7.7022    1.1767   21.5178 O   0  0  0  0  0  0  0  0  0  0  0  0
    6.5033   -0.6816   20.9318 N   0  0  0  0  0  0  0  0  0  0  0  0
    5.8640   -0.0779   19.8165 C   0  0  0  0  0  0  0  0  0  0  0  0
    6.3010   -0.3519   18.5449 C   0  0  0  0  0  0  0  0  0  0  0  0
    5.7729    0.1894   17.4178 N   0  0  0  0  0  0  0  0  0  0  0  0
    4.7710    1.0228   17.5738 C   0  0  0  0  0  0  0  0  0  0  0  0
    4.2158    1.3891   18.8340 C   0  0  0  0  0  0  0  0  0  0  0  0
    3.1229    2.2916   18.9450 C   0  0  0  0  0  0  0  0  0  0  0  0
    2.6053    2.6090   20.1693 C   0  0  0  0  0  0  0  0  0  0  0  0
    3.1537    2.0499   21.3448 C   0  0  0  0  0  0  0  0  0  0  0  0
    4.2176    1.1834   21.2666 C   0  0  0  0  0  0  0  0  0  0  0  0
    4.7766    0.8281   20.0043 C   0  0  0  0  0  0  0  0  0  0  0  0
    6.1073   -1.9455   21.5145 C   0  0  0  0  0  0  0  0  0  0  0  0
    7.3422   -2.2799   22.3642 C   0  0  2  0  0  0  0  0  0  0  0  0
    7.0838   -3.3268   23.4352 C   0  0  0  0  0  0  0  0  0  0  0  0
    6.7243   -4.5495   22.8245 O   0  0  0  0  0  0  0  0  0  0  0  0
    5.4424   -5.0381   23.1806 C   0  0  0  0  0  0  0  0  0  0  0  0
    5.2297   -6.3041   22.3768 C   0  0  0  0  0  0  0  0  0  0  0  0
    3.8098   -6.8699   22.5348 C   0  0  0  0  0  0  0  0  0  0  0  0
    3.3957   -6.5419   20.7645 S   0  0  0  0  0  0  0  0  0  0  0  0
    5.3852   -4.7755   20.3937 O   0  0  0  0  0  0  0  0  0  0  0  0
    3.3316   -7.7573   19.9073 O   0  0  0  0  0  0  0  0  0  0  0  0
    5.1577   -6.0690   20.8441 C   0  0  0  0  0  0  0  0  0  0  0  0
    9.3729   -0.8210   23.0835 C   0  0  0  0  0  0  0  0  0  0  0  0
   10.2981   -1.7396   22.5649 C   0  0  0  0  0  0  0  0  0  0  0  0
   11.6534   -1.5412   22.7600 C   0  0  0  0  0  0  0  0  0  0  0  0
   12.7832   -2.6973   22.1097 Cl  0  0  0  0  0  0  0  0  0  0  0  0
   12.1459   -0.4411   23.4599 C   0  0  0  0  0  0  0  0  0  0  0  0
   11.2412    0.4637   23.9780 C   0  0  0  0  0  0  0  0  0  0  0  0
    9.8721    0.2717   23.8096 C   0  0  0  0  0  0  0  0  0  0  0  0
    8.9398    1.2646   24.4290 C   0  0  0  0  0  0  0  0  0  0  0  0
    9.2947    2.3981   24.7502 O   0  0  0  0  0  0  0  0  0  0  0  0
    6.6287    4.1972   21.3160 H   0  0  0  0  0  0  0  0  0  0  0  0
    5.1216    3.8696   22.1892 H   0  0  0  0  0  0  0  0  0  0  0  0
    6.2067    5.1390   22.7695 H   0  0  0  0  0  0  0  0  0  0  0  0
    7.8423    3.4113   23.3016 H   0  0  0  0  0  0  0  0  0  0  0  0
    6.9053    2.2623   22.6012 H   0  0  0  0  0  0  0  0  0  0  0  0
    5.1220    2.7336   24.2364 H   0  0  0  0  0  0  0  0  0  0  0  0
    6.2192    3.8476   25.0238 H   0  0  0  0  0  0  0  0  0  0  0  0
    5.9411    1.1916   25.7181 H   0  0  0  0  0  0  0  0  0  0  0  0
    7.3249    2.1893   26.1377 H   0  0  0  0  0  0  0  0  0  0  0  0
    6.0926   -0.3619   24.0098 H   0  0  0  0  0  0  0  0  0  0  0  0
    7.3614   -1.1828   24.9504 H   0  0  0  0  0  0  0  0  0  0  0  0
    7.1420   -1.0289   18.3976 H   0  0  0  0  0  0  0  0  0  0  0  0
    4.3354    1.4517   16.6704 H   0  0  0  0  0  0  0  0  0  0  0  0
    2.7157    2.7179   18.0316 H   0  0  0  0  0  0  0  0  0  0  0  0
    1.7698    3.2987   20.2490 H   0  0  0  0  0  0  0  0  0  0  0  0
    2.7437    2.3208   22.3156 H   0  0  0  0  0  0  0  0  0  0  0  0
    4.6262    0.7552   22.1781 H   0  0  0  0  0  0  0  0  0  0  0  0
    5.8648   -2.6553   20.7229 H   0  0  0  0  0  0  0  0  0  0  0  0
    5.2039   -1.8510   22.1436 H   0  0  0  0  0  0  0  0  0  0  0  0
    8.0788   -2.6800   21.6650 H   0  0  0  0  0  0  0  0  0  0  0  0
    6.2833   -2.9920   24.1132 H   0  0  0  0  0  0  0  0  0  0  0  0
    7.9856   -3.4790   24.0438 H   0  0  0  0  0  0  0  0  0  0  0  0
    5.3803   -5.2604   24.2595 H   0  0  0  0  0  0  0  0  0  0  0  0
    4.6674   -4.2823   22.9548 H   0  0  0  0  0  0  0  0  0  0  0  0
    6.0236   -7.0196   22.6113 H   0  0  0  0  0  0  0  0  0  0  0  0
    3.1507   -6.2817   23.1778 H   0  0  0  0  0  0  0  0  0  0  0  0
    3.7238   -7.9205   22.7938 H   0  0  0  0  0  0  0  0  0  0  0  0
    6.2246   -4.5126   20.8176 H   0  0  0  0  0  0  0  0  0  0  0  0
    5.7110   -6.8175   20.2678 H   0  0  0  0  0  0  0  0  0  0  0  0
    9.9864   -2.6171   22.0103 H   0  0  0  0  0  0  0  0  0  0  0  0
   13.2152   -0.3118   23.5938 H   0  0  0  0  0  0  0  0  0  0  0  0
   11.5766    1.3353   24.5288 H   0  0  0  0  0  0  0  0  0  0  0  0
  1  2  1  0
  2  3  1  0
  3  4  1  0
  4  5  1  0
  5  6  1  0
  7  6  1  1
  7  8  1  0
  8  9  2  0
  8 10  1  0
 10 11  1  0
 11 12  2  0
 12 13  1  0
 13 14  2  0
 14 15  1  0
 15 16  2  0
 16 17  1  0
 17 18  2  0
 18 19  1  0
 19 20  2  0
 10 21  1  0
 21 22  1  0
 22 23  1  0
 23 24  1  0
 24 25  1  0
 25 26  1  0
 26 27  1  0
 27 28  1  0
 28 29  2  0
 28 30  2  0
 28 31  1  0
  7 32  1  0
 32 33  2  0
 33 34  1  0
 34 35  1  0
 34 36  2  0
 36 37  1  0
 37 38  2  0
 38 39  1  0
 39 40  2  0
 39  5  1  0
 22  7  1  0
 31 26  1  0
 38 32  1  0
 20 11  1  0
 20 15  1  0
  1 41  1  0
  1 42  1  0
  1 43  1  0
  2 44  1  0
  2 45  1  0
  3 46  1  0
  3 47  1  0
  4 48  1  0
  4 49  1  0
  6 50  1  0
  6 51  1  0
 12 52  1  0
 14 53  1  0
 16 54  1  0
 17 55  1  0
 18 56  1  0
 19 57  1  0
 21 58  1  0
 21 59  1  0
 22 60  1  6
 23 61  1  0
 23 62  1  0
 25 63  1  0
 25 64  1  0
 26 65  1  0
 27 66  1  0
 27 67  1  0
 31 68  1  0
 31 69  1  0
 33 70  1  0
 36 71  1  0
 37 72  1  0
M  CHG  1   2   1
M  END
>  <RMSD>  (76) 
0.18071259953358237

$$$$

     RDKit          3D

 56 60  0  0  0  0  0  0  0  0999 V2000
   -6.7628    2.6515  -23.2217 C   0  0  0  0  0  0  0  0  0  0  0  0
   -7.3101    1.4748  -23.8592 N   0  0  0  0  0  0  0  0  0  0  0  0
   -6.8326    1.0641  -25.0528 C   0  0  0  0  0  0  0  0  0  0  0  0
   -6.0154    1.6975  -25.7060 O   0  0  0  0  0  0  0  0  0  0  0  0
   -7.3273   -0.2872  -25.5807 C   0  0  0  0  0  0  0  0  0  0  0  0
   -8.1443   -1.0837  -24.6879 N   0  0  0  0  0  0  0  0  0  0  0  0
   -7.5800   -2.2943  -24.1195 C   0  0  0  0  0  0  0  0  0  0  0  0
   -8.2278   -2.6412  -22.7537 C   0  0  2  0  0  0  0  0  0  0  0  0
   -7.8750   -1.5364  -21.7247 C   0  0  0  0  0  0  0  0  0  0  0  0
   -8.4078   -0.4519  -21.5916 O   0  0  0  0  0  0  0  0  0  0  0  0
   -6.8120   -1.9801  -20.9683 N   0  0  0  0  0  0  0  0  0  0  0  0
   -6.1769   -1.1523  -20.0040 C   0  0  0  0  0  0  0  0  0  0  0  0
   -6.5468   -1.2429  -18.6868 C   0  0  0  0  0  0  0  0  0  0  0  0
   -6.0148   -0.5018  -17.6822 N   0  0  0  0  0  0  0  0  0  0  0  0
   -5.0750    0.3595  -17.9999 C   0  0  0  0  0  0  0  0  0  0  0  0
   -4.5715    0.5405  -19.3221 C   0  0  0  0  0  0  0  0  0  0  0  0
   -3.5537    1.4876  -19.6294 C   0  0  0  0  0  0  0  0  0  0  0  0
   -3.0983    1.6212  -20.9142 C   0  0  0  0  0  0  0  0  0  0  0  0
   -3.6265    0.8172  -21.9517 C   0  0  0  0  0  0  0  0  0  0  0  0
   -4.6203   -0.0914  -21.6832 C   0  0  0  0  0  0  0  0  0  0  0  0
   -5.1270   -0.2475  -20.3618 C   0  0  0  0  0  0  0  0  0  0  0  0
   -6.3448   -3.3021  -21.3481 C   0  0  0  0  0  0  0  0  0  0  0  0
   -7.5526   -3.8785  -22.0979 C   0  0  2  0  0  0  0  0  0  0  0  0
   -7.2246   -5.0396  -23.0270 C   0  0  0  0  0  0  0  0  0  0  0  0
   -9.7255   -2.7169  -22.9774 C   0  0  0  0  0  0  0  0  0  0  0  0
  -10.5588   -3.5882  -22.2673 C   0  0  0  0  0  0  0  0  0  0  0  0
  -11.9370   -3.5273  -22.4010 C   0  0  0  0  0  0  0  0  0  0  0  0
  -12.5203   -2.5884  -23.2583 C   0  0  0  0  0  0  0  0  0  0  0  0
  -11.7128   -1.7275  -23.9839 C   0  0  0  0  0  0  0  0  0  0  0  0
  -10.3232   -1.7937  -23.8521 C   0  0  0  0  0  0  0  0  0  0  0  0
   -9.4900   -0.8391  -24.6608 C   0  0  0  0  0  0  0  0  0  0  0  0
   -9.9726    0.1206  -25.2473 O   0  0  0  0  0  0  0  0  0  0  0  0
   -7.2926    2.8054  -22.2798 H   0  0  0  0  0  0  0  0  0  0  0  0
   -5.6995    2.5095  -22.9997 H   0  0  0  0  0  0  0  0  0  0  0  0
   -6.8665    3.5422  -23.8496 H   0  0  0  0  0  0  0  0  0  0  0  0
   -8.1038    1.0203  -23.4282 H   0  0  0  0  0  0  0  0  0  0  0  0
   -6.4308   -0.8608  -25.8360 H   0  0  0  0  0  0  0  0  0  0  0  0
   -7.8642   -0.1097  -26.5194 H   0  0  0  0  0  0  0  0  0  0  0  0
   -6.5054   -2.1336  -23.9843 H   0  0  0  0  0  0  0  0  0  0  0  0
   -7.7146   -3.1343  -24.8174 H   0  0  0  0  0  0  0  0  0  0  0  0
   -7.3294   -1.9383  -18.3918 H   0  0  0  0  0  0  0  0  0  0  0  0
   -4.6576    0.9643  -17.1928 H   0  0  0  0  0  0  0  0  0  0  0  0
   -3.1551    2.1091  -18.8289 H   0  0  0  0  0  0  0  0  0  0  0  0
   -2.3301    2.3517  -21.1557 H   0  0  0  0  0  0  0  0  0  0  0  0
   -3.2747    0.9424  -22.9744 H   0  0  0  0  0  0  0  0  0  0  0  0
   -5.0340   -0.7015  -22.4828 H   0  0  0  0  0  0  0  0  0  0  0  0
   -6.0810   -3.8842  -20.4620 H   0  0  0  0  0  0  0  0  0  0  0  0
   -5.4578   -3.2792  -22.0056 H   0  0  0  0  0  0  0  0  0  0  0  0
   -8.2339   -4.2438  -21.3262 H   0  0  0  0  0  0  0  0  0  0  0  0
   -8.0973   -5.3497  -23.6107 H   0  0  0  0  0  0  0  0  0  0  0  0
   -6.8691   -5.9129  -22.4712 H   0  0  0  0  0  0  0  0  0  0  0  0
   -6.4446   -4.7651  -23.7430 H   0  0  0  0  0  0  0  0  0  0  0  0
  -10.1242   -4.3297  -21.6035 H   0  0  0  0  0  0  0  0  0  0  0  0
  -12.5542   -4.2068  -21.8161 H   0  0  0  0  0  0  0  0  0  0  0  0
  -13.6036   -2.5326  -23.3430 H   0  0  0  0  0  0  0  0  0  0  0  0
  -12.1394   -0.9939  -24.6645 H   0  0  0  0  0  0  0  0  0  0  0  0
  1  2  1  0
  2  3  1  0
  3  4  2  0
  3  5  1  0
  5  6  1  0
  6  7  1  0
  8  7  1  6
  8  9  1  0
  9 10  2  0
  9 11  1  0
 11 12  1  0
 12 13  2  0
 13 14  1  0
 14 15  2  0
 15 16  1  0
 16 17  2  0
 17 18  1  0
 18 19  2  0
 19 20  1  0
 20 21  2  0
 11 22  1  0
 22 23  1  0
 23 24  1  0
  8 25  1  0
 25 26  2  0
 26 27  1  0
 27 28  2  0
 28 29  1  0
 29 30  2  0
 30 31  1  0
 31 32  2  0
 31  6  1  0
 23  8  1  0
 30 25  1  0
 21 12  1  0
 21 16  1  0
  1 33  1  0
  1 34  1  0
  1 35  1  0
  2 36  1  0
  5 37  1  0
  5 38  1  0
  7 39  1  0
  7 40  1  0
 13 41  1  0
 15 42  1  0
 17 43  1  0
 18 44  1  0
 19 45  1  0
 20 46  1  0
 22 47  1  0
 22 48  1  0
 23 49  1  1
 24 50  1  0
 24 51  1  0
 24 52  1  0
 26 53  1  0
 27 54  1  0
 28 55  1  0
 29 56  1  0
M  END
>  <RMSD>  (77) 
0.05691242270847564

$$$$

     RDKit          3D

 46 48  0  0  0  0  0  0  0  0999 V2000
   -8.5821    0.4080  -26.4172 C   0  0  0  0  0  0  0  0  0  0  0  0
   -8.3649   -0.4051  -25.1416 C   0  0  1  0  0  0  0  0  0  0  0  0
   -9.5724   -1.3049  -24.8547 C   0  0  0  0  0  0  0  0  0  0  0  0
   -9.4181   -2.1499  -23.5720 C   0  0  1  0  0  0  0  0  0  0  0  0
  -10.1124   -3.5127  -23.6954 C   0  0  0  0  0  0  0  0  0  0  0  0
   -8.0167   -2.3179  -23.1530 N   0  0  0  0  0  0  0  0  0  0  0  0
   -7.6186   -1.4044  -22.1313 C   0  0  0  0  0  0  0  0  0  0  0  0
   -7.9507   -0.2433  -22.0955 O   0  0  0  0  0  0  0  0  0  0  0  0
   -6.8185   -2.0776  -21.0152 C   0  0  0  0  0  0  0  0  0  0  0  0
   -6.1620   -1.1675  -20.0103 C   0  0  0  0  0  0  0  0  0  0  0  0
   -6.5015   -1.2634  -18.6846 C   0  0  0  0  0  0  0  0  0  0  0  0
   -6.0039   -0.4990  -17.6810 N   0  0  0  0  0  0  0  0  0  0  0  0
   -5.0853    0.3798  -18.0073 C   0  0  0  0  0  0  0  0  0  0  0  0
   -4.6025    0.5638  -19.3313 C   0  0  0  0  0  0  0  0  0  0  0  0
   -3.5795    1.4936  -19.6344 C   0  0  0  0  0  0  0  0  0  0  0  0
   -3.0977    1.6059  -20.9115 C   0  0  0  0  0  0  0  0  0  0  0  0
   -3.6264    0.7996  -21.9449 C   0  0  0  0  0  0  0  0  0  0  0  0
   -4.6321   -0.0905  -21.6796 C   0  0  0  0  0  0  0  0  0  0  0  0
   -5.1529   -0.2303  -20.3650 C   0  0  0  0  0  0  0  0  0  0  0  0
   -7.0451   -2.4606  -24.2524 C   0  0  1  0  0  0  0  0  0  0  0  0
   -7.2328   -3.7820  -25.0043 C   0  0  0  0  0  0  0  0  0  0  0  0
   -7.0711   -1.2401  -25.2112 C   0  0  0  0  0  0  0  0  0  0  0  0
   -9.4706    1.0436  -26.3454 H   0  0  0  0  0  0  0  0  0  0  0  0
   -8.7290   -0.2490  -27.2810 H   0  0  0  0  0  0  0  0  0  0  0  0
   -7.7360    1.0594  -26.6531 H   0  0  0  0  0  0  0  0  0  0  0  0
   -8.2682    0.2700  -24.2868 H   0  0  0  0  0  0  0  0  0  0  0  0
   -9.7517   -1.9582  -25.7241 H   0  0  0  0  0  0  0  0  0  0  0  0
  -10.4742   -0.6784  -24.7692 H   0  0  0  0  0  0  0  0  0  0  0  0
   -9.8722   -1.6154  -22.7296 H   0  0  0  0  0  0  0  0  0  0  0  0
   -9.8111   -4.1698  -22.8736 H   0  0  0  0  0  0  0  0  0  0  0  0
  -11.2042   -3.4046  -23.6779 H   0  0  0  0  0  0  0  0  0  0  0  0
   -9.8468   -4.0045  -24.6344 H   0  0  0  0  0  0  0  0  0  0  0  0
   -7.5670   -2.6859  -20.4842 H   0  0  0  0  0  0  0  0  0  0  0  0
   -6.1109   -2.7790  -21.4862 H   0  0  0  0  0  0  0  0  0  0  0  0
   -7.2133   -2.0214  -18.3566 H   0  0  0  0  0  0  0  0  0  0  0  0
   -4.6774    0.9942  -17.2033 H   0  0  0  0  0  0  0  0  0  0  0  0
   -3.1949    2.1118  -18.8277 H   0  0  0  0  0  0  0  0  0  0  0  0
   -2.3062    2.3125  -21.1371 H   0  0  0  0  0  0  0  0  0  0  0  0
   -3.2365    0.8954  -22.9552 H   0  0  0  0  0  0  0  0  0  0  0  0
   -5.0445   -0.7027  -22.4777 H   0  0  0  0  0  0  0  0  0  0  0  0
   -6.0649   -2.4996  -23.7607 H   0  0  0  0  0  0  0  0  0  0  0  0
   -7.4775   -4.5807  -24.2968 H   0  0  0  0  0  0  0  0  0  0  0  0
   -8.0330   -3.7229  -25.7548 H   0  0  0  0  0  0  0  0  0  0  0  0
   -6.3077   -4.0479  -25.5321 H   0  0  0  0  0  0  0  0  0  0  0  0
   -6.2182   -0.5789  -25.0031 H   0  0  0  0  0  0  0  0  0  0  0  0
   -6.9315   -1.6126  -26.2349 H   0  0  0  0  0  0  0  0  0  0  0  0
  1  2  1  0
  2  3  1  0
  3  4  1  0
  4  5  1  0
  4  6  1  0
  6  7  1  0
  7  8  2  0
  7  9  1  0
  9 10  1  0
 10 11  2  0
 11 12  1  0
 12 13  2  0
 13 14  1  0
 14 15  2  0
 15 16  1  0
 16 17  2  0
 17 18  1  0
 18 19  2  0
  6 20  1  0
 20 21  1  0
 20 22  1  0
 22  2  1  0
 19 10  1  0
 19 14  1  0
  1 23  1  0
  1 24  1  0
  1 25  1  0
  2 26  1  1
  3 27  1  0
  3 28  1  0
  4 29  1  1
  5 30  1  0
  5 31  1  0
  5 32  1  0
  9 33  1  0
  9 34  1  0
 11 35  1  0
 13 36  1  0
 15 37  1  0
 16 38  1  0
 17 39  1  0
 18 40  1  0
 20 41  1  1
 21 42  1  0
 21 43  1  0
 21 44  1  0
 22 45  1  0
 22 46  1  0
M  END
>  <RMSD>  (78) 
0.031184285641128625

$$$$

     RDKit          3D

 40 44  0  0  0  0  0  0  0  0999 V2000
   -7.1798    0.6802  -24.9436 C   0  0  0  0  0  0  0  0  0  0  0  0
   -6.3270   -0.5868  -24.9841 C   0  0  0  0  0  0  0  0  0  0  0  0
   -5.1291   -0.5567  -25.2227 O   0  0  0  0  0  0  0  0  0  0  0  0
   -6.9514   -1.7791  -24.7492 N   0  0  0  0  0  0  0  0  0  0  0  0
   -6.1719   -3.0178  -24.5062 C   0  0  0  0  0  0  0  0  0  0  0  0
   -7.2370   -3.9024  -23.8283 C   0  0  2  0  0  0  0  0  0  0  0  0
   -8.4915   -3.4844  -24.6027 C   0  0  0  0  0  0  0  0  0  0  0  0
   -8.3227   -1.9984  -24.2232 C   0  0  1  0  0  0  0  0  0  0  0  0
   -8.2127   -2.1302  -22.7567 C   0  0  0  0  0  0  0  0  0  0  0  0
   -7.9879   -1.2402  -21.6535 C   0  0  0  0  0  0  0  0  0  0  0  0
   -8.4844   -0.1839  -21.3322 O   0  0  0  0  0  0  0  0  0  0  0  0
   -6.9779   -1.8986  -20.8958 N   0  0  0  0  0  0  0  0  0  0  0  0
   -6.1820   -1.1779  -19.9635 C   0  0  0  0  0  0  0  0  0  0  0  0
   -6.4960   -1.2863  -18.6385 C   0  0  0  0  0  0  0  0  0  0  0  0
   -5.9314   -0.5495  -17.6535 N   0  0  0  0  0  0  0  0  0  0  0  0
   -5.0293    0.3348  -18.0040 C   0  0  0  0  0  0  0  0  0  0  0  0
   -4.5747    0.5304  -19.3394 C   0  0  0  0  0  0  0  0  0  0  0  0
   -3.5869    1.5017  -19.6577 C   0  0  0  0  0  0  0  0  0  0  0  0
   -3.1535    1.6422  -20.9473 C   0  0  0  0  0  0  0  0  0  0  0  0
   -3.6810    0.8121  -21.9659 C   0  0  0  0  0  0  0  0  0  0  0  0
   -4.6465   -0.1232  -21.6842 C   0  0  0  0  0  0  0  0  0  0  0  0
   -5.1460   -0.2654  -20.3598 C   0  0  0  0  0  0  0  0  0  0  0  0
   -6.6700   -3.1695  -21.4149 C   0  0  0  0  0  0  0  0  0  0  0  0
   -5.8396   -3.9476  -21.0242 O   0  0  0  0  0  0  0  0  0  0  0  0
   -7.5351   -3.2987  -22.5063 N   0  0  0  0  0  0  0  0  0  0  0  0
   -7.6781    0.8151  -23.9756 H   0  0  0  0  0  0  0  0  0  0  0  0
   -6.5033    1.5185  -25.1252 H   0  0  0  0  0  0  0  0  0  0  0  0
   -7.9625    0.6767  -25.7126 H   0  0  0  0  0  0  0  0  0  0  0  0
   -5.7946   -3.4176  -25.4516 H   0  0  0  0  0  0  0  0  0  0  0  0
   -5.3361   -2.8254  -23.8287 H   0  0  0  0  0  0  0  0  0  0  0  0
   -7.0087   -4.9581  -23.7512 H   0  0  0  0  0  0  0  0  0  0  0  0
   -8.4012   -3.6496  -25.6794 H   0  0  0  0  0  0  0  0  0  0  0  0
   -9.4091   -3.9354  -24.2243 H   0  0  0  0  0  0  0  0  0  0  0  0
   -9.0573   -1.2751  -24.5872 H   0  0  0  0  0  0  0  0  0  0  0  0
   -7.2331   -2.0231  -18.3331 H   0  0  0  0  0  0  0  0  0  0  0  0
   -4.6265    0.9520  -17.2022 H   0  0  0  0  0  0  0  0  0  0  0  0
   -3.2113    2.1349  -18.8554 H   0  0  0  0  0  0  0  0  0  0  0  0
   -2.4086    2.3943  -21.1957 H   0  0  0  0  0  0  0  0  0  0  0  0
   -3.3431    0.9241  -22.9917 H   0  0  0  0  0  0  0  0  0  0  0  0
   -5.0364   -0.7566  -22.4779 H   0  0  0  0  0  0  0  0  0  0  0  0
  1  2  1  0
  2  3  2  0
  2  4  1  0
  4  5  1  0
  5  6  1  0
  6  7  1  0
  7  8  1  0
  8  9  1  0
  9 10  2  0
 10 11  1  0
 10 12  1  0
 12 13  1  0
 13 14  2  0
 14 15  1  0
 15 16  2  0
 16 17  1  0
 17 18  2  0
 18 19  1  0
 19 20  2  0
 20 21  1  0
 21 22  2  0
 12 23  1  0
 23 24  2  0
 23 25  1  0
  8  4  1  0
 25  9  1  0
 25  6  1  0
 22 13  1  0
 22 17  1  0
  1 26  1  0
  1 27  1  0
  1 28  1  0
  5 29  1  0
  5 30  1  0
  6 31  1  1
  7 32  1  0
  7 33  1  0
  8 34  1  1
 14 35  1  0
 16 36  1  0
 18 37  1  0
 19 38  1  0
 20 39  1  0
 21 40  1  0
M  CHG  1  11  -1
M  END
>  <RMSD>  (79) 
0.1593648805573821

$$$$

     RDKit          3D

 40 42  0  0  0  0  0  0  0  0999 V2000
  -10.0595    0.2545  -25.3566 C   0  0  0  0  0  0  0  0  0  0  0  0
   -9.3720   -0.5311  -24.2536 C   0  0  0  0  0  0  0  0  0  0  0  0
  -10.4390   -1.3509  -23.4931 C   0  0  0  0  0  0  0  0  0  0  0  0
   -9.8550   -2.6283  -22.8660 C   0  0  0  0  0  0  0  0  0  0  0  0
   -8.4308   -2.4865  -22.6023 N   0  0  0  0  0  0  0  0  0  0  0  0
   -8.0884   -1.9040  -21.4031 C   0  0  0  0  0  0  0  0  0  0  0  0
   -8.8912   -1.2818  -20.7331 O   0  0  0  0  0  0  0  0  0  0  0  0
   -6.6732   -2.2117  -20.9386 C   0  0  0  0  0  0  0  0  0  0  0  0
   -6.0980   -1.2293  -19.9733 C   0  0  0  0  0  0  0  0  0  0  0  0
   -6.5150   -1.2592  -18.6672 C   0  0  0  0  0  0  0  0  0  0  0  0
   -6.0324   -0.4789  -17.6696 N   0  0  0  0  0  0  0  0  0  0  0  0
   -5.0900    0.3760  -18.0030 C   0  0  0  0  0  0  0  0  0  0  0  0
   -4.5697    0.5277  -19.3216 C   0  0  0  0  0  0  0  0  0  0  0  0
   -3.5555    1.4701  -19.6322 C   0  0  0  0  0  0  0  0  0  0  0  0
   -3.1029    1.6153  -20.9178 C   0  0  0  0  0  0  0  0  0  0  0  0
   -3.6419    0.8233  -21.9552 C   0  0  0  0  0  0  0  0  0  0  0  0
   -4.6141   -0.1090  -21.6778 C   0  0  0  0  0  0  0  0  0  0  0  0
   -5.1007   -0.2859  -20.3516 C   0  0  0  0  0  0  0  0  0  0  0  0
   -7.6226   -2.3458  -23.8106 C   0  0  0  0  0  0  0  0  0  0  0  0
   -8.3670   -1.5128  -24.8695 C   0  0  0  0  0  0  0  0  0  0  0  0
  -10.5578   -0.4824  -25.9933 H   0  0  0  0  0  0  0  0  0  0  0  0
   -9.3698    0.8225  -25.9858 H   0  0  0  0  0  0  0  0  0  0  0  0
  -10.8090    0.9525  -24.9711 H   0  0  0  0  0  0  0  0  0  0  0  0
   -8.8608    0.1813  -23.5813 H   0  0  0  0  0  0  0  0  0  0  0  0
  -11.2495   -1.6289  -24.1875 H   0  0  0  0  0  0  0  0  0  0  0  0
  -10.8870   -0.7308  -22.7117 H   0  0  0  0  0  0  0  0  0  0  0  0
  -10.3614   -2.8659  -21.9275 H   0  0  0  0  0  0  0  0  0  0  0  0
   -9.9618   -3.4858  -23.5447 H   0  0  0  0  0  0  0  0  0  0  0  0
   -6.7379   -3.2001  -20.4555 H   0  0  0  0  0  0  0  0  0  0  0  0
   -6.0402   -2.3310  -21.8144 H   0  0  0  0  0  0  0  0  0  0  0  0
   -7.3001   -1.9570  -18.3819 H   0  0  0  0  0  0  0  0  0  0  0  0
   -4.7002    1.0069  -17.2045 H   0  0  0  0  0  0  0  0  0  0  0  0
   -3.1571    2.0849  -18.8297 H   0  0  0  0  0  0  0  0  0  0  0  0
   -2.3386    2.3521  -21.1539 H   0  0  0  0  0  0  0  0  0  0  0  0
   -3.2867    0.9540  -22.9758 H   0  0  0  0  0  0  0  0  0  0  0  0
   -5.0138   -0.7092  -22.4924 H   0  0  0  0  0  0  0  0  0  0  0  0
   -6.6687   -1.8781  -23.5475 H   0  0  0  0  0  0  0  0  0  0  0  0
   -7.4070   -3.3357  -24.2241 H   0  0  0  0  0  0  0  0  0  0  0  0
   -8.9334   -2.1955  -25.5247 H   0  0  0  0  0  0  0  0  0  0  0  0
   -7.6518   -0.9800  -25.5088 H   0  0  0  0  0  0  0  0  0  0  0  0
  1  2  1  0
  2  3  1  0
  3  4  1  0
  4  5  1  0
  5  6  1  0
  6  7  2  0
  6  8  1  0
  8  9  1  0
  9 10  2  0
 10 11  1  0
 11 12  2  0
 12 13  1  0
 13 14  2  0
 14 15  1  0
 15 16  2  0
 16 17  1  0
 17 18  2  0
  5 19  1  0
 19 20  1  0
 20  2  1  0
 18  9  1  0
 18 13  1  0
  1 21  1  0
  1 22  1  0
  1 23  1  0
  2 24  1  0
  3 25  1  0
  3 26  1  0
  4 27  1  0
  4 28  1  0
  8 29  1  0
  8 30  1  0
 10 31  1  0
 12 32  1  0
 14 33  1  0
 15 34  1  0
 16 35  1  0
 17 36  1  0
 19 37  1  0
 19 38  1  0
 20 39  1  0
 20 40  1  0
M  END
>  <RMSD>  (80) 
0.04031743548536566

$$$$

     RDKit          3D

 67 71  0  0  0  0  0  0  0  0999 V2000
   -6.7696    2.6166  -23.2000 C   0  0  0  0  0  0  0  0  0  0  0  0
   -7.3275    1.4316  -23.8217 N   0  0  0  0  0  0  0  0  0  0  0  0
   -6.8471    1.0208  -25.0157 C   0  0  0  0  0  0  0  0  0  0  0  0
   -6.0307    1.6606  -25.6669 O   0  0  0  0  0  0  0  0  0  0  0  0
   -7.3634   -0.3103  -25.5778 C   0  0  0  0  0  0  0  0  0  0  0  0
   -8.1677   -1.1182  -24.6881 N   0  0  0  0  0  0  0  0  0  0  0  0
   -7.5793   -2.3106  -24.1060 C   0  0  0  0  0  0  0  0  0  0  0  0
   -8.2112   -2.6533  -22.7335 C   0  0  2  0  0  0  0  0  0  0  0  0
   -7.8550   -1.5407  -21.7147 C   0  0  0  0  0  0  0  0  0  0  0  0
   -8.3783   -0.4502  -21.5914 O   0  0  0  0  0  0  0  0  0  0  0  0
   -6.7948   -1.9808  -20.9560 N   0  0  0  0  0  0  0  0  0  0  0  0
   -6.1677   -1.1554  -19.9911 C   0  0  0  0  0  0  0  0  0  0  0  0
   -6.5474   -1.2393  -18.6779 C   0  0  0  0  0  0  0  0  0  0  0  0
   -6.0178   -0.4933  -17.6746 N   0  0  0  0  0  0  0  0  0  0  0  0
   -5.0756    0.3605  -18.0035 C   0  0  0  0  0  0  0  0  0  0  0  0
   -4.5818    0.5424  -19.3286 C   0  0  0  0  0  0  0  0  0  0  0  0
   -3.5622    1.4833  -19.6335 C   0  0  0  0  0  0  0  0  0  0  0  0
   -3.1012    1.6173  -20.9140 C   0  0  0  0  0  0  0  0  0  0  0  0
   -3.6309    0.8199  -21.9540 C   0  0  0  0  0  0  0  0  0  0  0  0
   -4.6256   -0.0884  -21.6881 C   0  0  0  0  0  0  0  0  0  0  0  0
   -5.1337   -0.2448  -20.3657 C   0  0  0  0  0  0  0  0  0  0  0  0
   -6.3093   -3.2923  -21.3155 C   0  0  0  0  0  0  0  0  0  0  0  0
   -7.5058   -3.8797  -22.0860 C   0  0  2  0  0  0  0  0  0  0  0  0
   -7.0783   -5.0043  -23.0272 C   0  0  0  0  0  0  0  0  0  0  0  0
   -6.1655   -6.2525  -22.1173 S   0  0  0  0  0  0  0  0  0  0  0  0
   -6.7863   -6.4711  -20.8197 O   0  0  0  0  0  0  0  0  0  0  0  0
   -4.7483   -5.9079  -22.1735 O   0  0  0  0  0  0  0  0  0  0  0  0
   -6.4671   -7.5678  -23.1206 N   0  0  0  0  0  0  0  0  0  0  0  0
   -5.6312   -7.5958  -24.3228 C   0  0  0  0  0  0  0  0  0  0  0  0
   -6.5638   -8.8537  -22.4347 C   0  0  0  0  0  0  0  0  0  0  0  0
   -9.7126   -2.7383  -22.9404 C   0  0  0  0  0  0  0  0  0  0  0  0
  -10.5420   -3.6113  -22.2249 C   0  0  0  0  0  0  0  0  0  0  0  0
  -11.9117   -3.5318  -22.3854 C   0  0  0  0  0  0  0  0  0  0  0  0
  -12.6950   -4.3705  -21.6864 F   0  0  0  0  0  0  0  0  0  0  0  0
  -12.5233   -2.6139  -23.2300 C   0  0  0  0  0  0  0  0  0  0  0  0
  -11.7116   -1.7609  -23.9466 C   0  0  0  0  0  0  0  0  0  0  0  0
  -10.3251   -1.8297  -23.8208 C   0  0  0  0  0  0  0  0  0  0  0  0
   -9.5190   -0.9000  -24.6729 C   0  0  0  0  0  0  0  0  0  0  0  0
  -10.0365    0.0100  -25.3085 O   0  0  0  0  0  0  0  0  0  0  0  0
   -5.7044    2.4730  -22.9770 H   0  0  0  0  0  0  0  0  0  0  0  0
   -6.8725    3.4920  -23.8501 H   0  0  0  0  0  0  0  0  0  0  0  0
   -7.3060    2.7999  -22.2658 H   0  0  0  0  0  0  0  0  0  0  0  0
   -7.9293    0.8368  -23.2623 H   0  0  0  0  0  0  0  0  0  0  0  0
   -7.9394   -0.0867  -26.4833 H   0  0  0  0  0  0  0  0  0  0  0  0
   -6.4792   -0.8789  -25.8864 H   0  0  0  0  0  0  0  0  0  0  0  0
   -6.5019   -2.1348  -23.9872 H   0  0  0  0  0  0  0  0  0  0  0  0
   -7.7231   -3.1642  -24.7843 H   0  0  0  0  0  0  0  0  0  0  0  0
   -7.3319   -1.9397  -18.3959 H   0  0  0  0  0  0  0  0  0  0  0  0
   -4.6469    0.9639  -17.2022 H   0  0  0  0  0  0  0  0  0  0  0  0
   -3.1637    2.0939  -18.8275 H   0  0  0  0  0  0  0  0  0  0  0  0
   -2.3263    2.3413  -21.1472 H   0  0  0  0  0  0  0  0  0  0  0  0
   -3.2697    0.9489  -22.9725 H   0  0  0  0  0  0  0  0  0  0  0  0
   -5.0264   -0.6920  -22.4979 H   0  0  0  0  0  0  0  0  0  0  0  0
   -5.3937   -3.2304  -21.9298 H   0  0  0  0  0  0  0  0  0  0  0  0
   -6.0644   -3.8802  -20.4300 H   0  0  0  0  0  0  0  0  0  0  0  0
   -8.1831   -4.3097  -21.3408 H   0  0  0  0  0  0  0  0  0  0  0  0
   -6.3757   -4.6468  -23.7919 H   0  0  0  0  0  0  0  0  0  0  0  0
   -7.9323   -5.5035  -23.5016 H   0  0  0  0  0  0  0  0  0  0  0  0
   -5.9209   -6.8028  -25.0285 H   0  0  0  0  0  0  0  0  0  0  0  0
   -5.8110   -8.5617  -24.8071 H   0  0  0  0  0  0  0  0  0  0  0  0
   -4.5666   -7.4857  -24.0707 H   0  0  0  0  0  0  0  0  0  0  0  0
   -7.2068   -8.7433  -21.5628 H   0  0  0  0  0  0  0  0  0  0  0  0
   -5.5796   -9.2371  -22.1324 H   0  0  0  0  0  0  0  0  0  0  0  0
   -7.0337   -9.5639  -23.1197 H   0  0  0  0  0  0  0  0  0  0  0  0
  -10.1576   -4.3547  -21.5353 H   0  0  0  0  0  0  0  0  0  0  0  0
  -13.6039   -2.5828  -23.3117 H   0  0  0  0  0  0  0  0  0  0  0  0
  -12.1266   -1.0204  -24.6208 H   0  0  0  0  0  0  0  0  0  0  0  0
  1  2  1  0
  2  3  1  0
  3  4  2  0
  3  5  1  0
  5  6  1  0
  6  7  1  0
  8  7  1  6
  8  9  1  0
  9 10  2  0
  9 11  1  0
 11 12  1  0
 12 13  2  0
 13 14  1  0
 14 15  2  0
 15 16  1  0
 16 17  2  0
 17 18  1  0
 18 19  2  0
 19 20  1  0
 20 21  2  0
 11 22  1  0
 22 23  1  0
 23 24  1  0
 24 25  1  0
 25 26  2  0
 25 27  2  0
 25 28  1  0
 28 29  1  0
 28 30  1  0
  8 31  1  0
 31 32  2  0
 32 33  1  0
 33 34  1  0
 33 35  2  0
 35 36  1  0
 36 37  2  0
 37 38  1  0
 38 39  2  0
 38  6  1  0
 23  8  1  0
 37 31  1  0
 21 12  1  0
 21 16  1  0
  1 40  1  0
  1 41  1  0
  1 42  1  0
  2 43  1  0
  5 44  1  0
  5 45  1  0
  7 46  1  0
  7 47  1  0
 13 48  1  0
 15 49  1  0
 17 50  1  0
 18 51  1  0
 19 52  1  0
 20 53  1  0
 22 54  1  0
 22 55  1  0
 23 56  1  1
 24 57  1  0
 24 58  1  0
 29 59  1  0
 29 60  1  0
 29 61  1  0
 30 62  1  0
 30 63  1  0
 30 64  1  0
 32 65  1  0
 35 66  1  0
 36 67  1  0
M  END
>  <RMSD>  (81) 
0.058569426955470544

$$$$

     RDKit          3D

 40 43  0  0  0  0  0  0  0  0999 V2000
   -5.8548    2.2920  -23.5577 C   0  0  0  0  0  0  0  0  0  0  0  0
   -5.1540    1.5425  -22.5384 N   0  0  0  0  0  0  0  0  0  0  0  0
   -4.0148    2.0520  -22.0272 N   0  0  0  0  0  0  0  0  0  0  0  0
   -3.6243    1.2334  -21.0788 C   0  0  0  0  0  0  0  0  0  0  0  0
   -4.5243    0.1353  -20.9416 C   0  0  0  0  0  0  0  0  0  0  0  0
   -4.6584   -1.0104  -20.1211 C   0  0  0  0  0  0  0  0  0  0  0  0
   -5.6792   -1.8434  -20.2580 N   0  0  0  0  0  0  0  0  0  0  0  0
   -6.6042   -1.5808  -21.2096 C   0  0  0  0  0  0  0  0  0  0  0  0
   -6.5815   -0.5064  -22.0808 C   0  0  0  0  0  0  0  0  0  0  0  0
   -7.5782   -0.3269  -23.0699 N   0  0  0  0  0  0  0  0  0  0  0  0
   -8.8225    0.1621  -22.7613 C   0  0  0  0  0  0  0  0  0  0  0  0
   -9.1657    0.3700  -21.6117 O   0  0  0  0  0  0  0  0  0  0  0  0
   -9.6942    0.4674  -23.9802 C   0  0  2  0  0  0  0  0  0  0  0  0
   -9.4020    1.9038  -24.4595 C   0  0  0  0  0  0  0  0  0  0  0  0
   -9.8676    2.9026  -23.4971 N   0  0  0  0  0  0  0  0  0  0  0  0
  -11.5156    3.0163  -23.4615 S   0  0  0  0  0  0  0  0  0  0  0  0
  -11.9366    3.5971  -24.7222 O   0  0  0  0  0  0  0  0  0  0  0  0
  -11.8738    3.6173  -22.1883 O   0  0  0  0  0  0  0  0  0  0  0  0
  -12.0348    1.3195  -23.4214 C   0  0  0  0  0  0  0  0  0  0  0  0
  -13.3759    1.1117  -23.1043 C   0  0  0  0  0  0  0  0  0  0  0  0
  -13.8409   -0.1763  -22.8858 C   0  0  0  0  0  0  0  0  0  0  0  0
  -12.9476   -1.2363  -23.0140 C   0  0  0  0  0  0  0  0  0  0  0  0
  -13.4902   -2.8495  -22.6676 Cl  0  0  0  0  0  0  0  0  0  0  0  0
  -11.6227   -1.0331  -23.3797 C   0  0  0  0  0  0  0  0  0  0  0  0
  -11.1527    0.2571  -23.6256 C   0  0  0  0  0  0  0  0  0  0  0  0
   -5.5035    0.3810  -21.9196 C   0  0  0  0  0  0  0  0  0  0  0  0
   -6.7783    2.7260  -23.1563 H   0  0  0  0  0  0  0  0  0  0  0  0
   -6.0913    1.6342  -24.3978 H   0  0  0  0  0  0  0  0  0  0  0  0
   -5.1823    3.0883  -23.8789 H   0  0  0  0  0  0  0  0  0  0  0  0
   -2.7240    1.4357  -20.5132 H   0  0  0  0  0  0  0  0  0  0  0  0
   -3.9229   -1.2368  -19.3519 H   0  0  0  0  0  0  0  0  0  0  0  0
   -7.4220   -2.2906  -21.2875 H   0  0  0  0  0  0  0  0  0  0  0  0
   -7.3149   -0.4628  -24.0323 H   0  0  0  0  0  0  0  0  0  0  0  0
   -9.3971   -0.2286  -24.7745 H   0  0  0  0  0  0  0  0  0  0  0  0
   -9.8808    2.1010  -25.4254 H   0  0  0  0  0  0  0  0  0  0  0  0
   -8.3325    2.0671  -24.5929 H   0  0  0  0  0  0  0  0  0  0  0  0
   -9.5377    2.7768  -22.5406 H   0  0  0  0  0  0  0  0  0  0  0  0
  -14.0354    1.9717  -23.0195 H   0  0  0  0  0  0  0  0  0  0  0  0
  -14.8700   -0.3584  -22.5974 H   0  0  0  0  0  0  0  0  0  0  0  0
  -10.9383   -1.8719  -23.4483 H   0  0  0  0  0  0  0  0  0  0  0  0
  1  2  1  0
  2  3  1  0
  3  4  2  0
  4  5  1  0
  5  6  2  0
  6  7  1  0
  7  8  2  0
  8  9  1  0
  9 10  1  0
 10 11  1  0
 11 12  2  0
 11 13  1  0
 13 14  1  0
 14 15  1  0
 15 16  1  0
 16 17  2  0
 16 18  2  0
 16 19  1  0
 19 20  2  0
 20 21  1  0
 21 22  2  0
 22 23  1  0
 22 24  1  0
 24 25  2  0
  9 26  2  0
 26  2  1  0
 26  5  1  0
 25 13  1  0
 25 19  1  0
  1 27  1  0
  1 28  1  0
  1 29  1  0
  4 30  1  0
  6 31  1  0
  8 32  1  0
 10 33  1  0
 13 34  1  6
 14 35  1  0
 14 36  1  0
 15 37  1  0
 20 38  1  0
 21 39  1  0
 24 40  1  0
M  END
>  <RMSD>  (82) 
0.03637355467504754

$$$$

     RDKit          3D

 60 64  0  0  0  0  0  0  0  0999 V2000
    7.4966   -4.7974   25.0730 C   0  0  0  0  0  0  0  0  0  0  0  0
    8.0268   -3.8820   23.9886 C   0  0  0  0  0  0  0  0  0  0  0  0
    6.9500   -3.1377   23.4466 O   0  0  0  0  0  0  0  0  0  0  0  0
    7.3339   -2.2755   22.4069 C   0  0  1  0  0  0  0  0  0  0  0  0
    6.1284   -1.9241   21.5329 C   0  0  0  0  0  0  0  0  0  0  0  0
    6.5342   -0.6645   20.9379 N   0  0  0  0  0  0  0  0  0  0  0  0
    5.8825   -0.0579   19.8282 C   0  0  0  0  0  0  0  0  0  0  0  0
    6.3053   -0.3468   18.5574 C   0  0  0  0  0  0  0  0  0  0  0  0
    5.7660    0.1755   17.4265 N   0  0  0  0  0  0  0  0  0  0  0  0
    4.7637    1.0126   17.5672 C   0  0  0  0  0  0  0  0  0  0  0  0
    4.2017    1.3817   18.8247 C   0  0  0  0  0  0  0  0  0  0  0  0
    3.1166    2.2968   18.9386 C   0  0  0  0  0  0  0  0  0  0  0  0
    2.6069    2.6164   20.1687 C   0  0  0  0  0  0  0  0  0  0  0  0
    3.1457    2.0387   21.3421 C   0  0  0  0  0  0  0  0  0  0  0  0
    4.2026    1.1668   21.2593 C   0  0  0  0  0  0  0  0  0  0  0  0
    4.7659    0.8213   19.9983 C   0  0  0  0  0  0  0  0  0  0  0  0
    7.5411   -0.0264   21.6289 C   0  0  0  0  0  0  0  0  0  0  0  0
    8.0066    1.0547   21.3264 O   0  0  0  0  0  0  0  0  0  0  0  0
    7.9224   -0.9063   22.8453 C   0  0  1  0  0  0  0  0  0  0  0  0
    7.2015   -0.3836   24.1151 C   0  0  0  0  0  0  0  0  0  0  0  0
    7.6701    0.9413   24.4834 N   0  0  0  0  0  0  0  0  0  0  0  0
    6.7713    1.8213   25.2021 C   0  0  0  0  0  0  0  0  0  0  0  0
    6.2137    3.0264   24.4357 C   0  0  0  0  0  0  0  0  0  0  0  0
    5.3360    3.7048   24.9488 O   0  0  0  0  0  0  0  0  0  0  0  0
    6.7091    3.2585   23.2016 N   0  0  0  0  0  0  0  0  0  0  0  0
    6.1127    4.2699   22.3565 C   0  0  0  0  0  0  0  0  0  0  0  0
    8.9984    1.2705   24.4494 C   0  0  0  0  0  0  0  0  0  0  0  0
    9.3980    2.3476   24.8704 O   0  0  0  0  0  0  0  0  0  0  0  0
    9.9156    0.2471   23.8399 C   0  0  0  0  0  0  0  0  0  0  0  0
   11.2925    0.4220   23.9891 C   0  0  0  0  0  0  0  0  0  0  0  0
   12.1825   -0.4851   23.4417 C   0  0  0  0  0  0  0  0  0  0  0  0
   11.6760   -1.5789   22.7366 C   0  0  0  0  0  0  0  0  0  0  0  0
   12.7799   -2.7166   22.0130 Cl  0  0  0  0  0  0  0  0  0  0  0  0
   10.3127   -1.7688   22.5757 C   0  0  0  0  0  0  0  0  0  0  0  0
    9.4090   -0.8464   23.1166 C   0  0  0  0  0  0  0  0  0  0  0  0
    8.3094   -5.4122   25.4743 H   0  0  0  0  0  0  0  0  0  0  0  0
    6.7269   -5.4672   24.6782 H   0  0  0  0  0  0  0  0  0  0  0  0
    7.0680   -4.2204   25.8972 H   0  0  0  0  0  0  0  0  0  0  0  0
    8.8199   -3.2285   24.3907 H   0  0  0  0  0  0  0  0  0  0  0  0
    8.4761   -4.4745   23.1833 H   0  0  0  0  0  0  0  0  0  0  0  0
    8.0542   -2.7868   21.7598 H   0  0  0  0  0  0  0  0  0  0  0  0
    5.2305   -1.8647   22.1679 H   0  0  0  0  0  0  0  0  0  0  0  0
    5.9486   -2.6707   20.7553 H   0  0  0  0  0  0  0  0  0  0  0  0
    7.1403   -1.0279   18.4078 H   0  0  0  0  0  0  0  0  0  0  0  0
    4.3386    1.4420   16.6575 H   0  0  0  0  0  0  0  0  0  0  0  0
    2.7087    2.7447   18.0339 H   0  0  0  0  0  0  0  0  0  0  0  0
    1.7864    3.3234   20.2612 H   0  0  0  0  0  0  0  0  0  0  0  0
    2.7494    2.3115   22.3185 H   0  0  0  0  0  0  0  0  0  0  0  0
    4.6223    0.7334   22.1634 H   0  0  0  0  0  0  0  0  0  0  0  0
    6.1277   -0.3271   23.9191 H   0  0  0  0  0  0  0  0  0  0  0  0
    7.3551   -1.0927   24.9397 H   0  0  0  0  0  0  0  0  0  0  0  0
    7.2607    2.1910   26.1093 H   0  0  0  0  0  0  0  0  0  0  0  0
    5.9041    1.2386   25.5288 H   0  0  0  0  0  0  0  0  0  0  0  0
    7.5456    2.7950   22.8768 H   0  0  0  0  0  0  0  0  0  0  0  0
    6.6663    4.2965   21.4159 H   0  0  0  0  0  0  0  0  0  0  0  0
    6.1387    5.2591   22.8243 H   0  0  0  0  0  0  0  0  0  0  0  0
    5.0692    4.0200   22.1356 H   0  0  0  0  0  0  0  0  0  0  0  0
   11.6527    1.2861   24.5389 H   0  0  0  0  0  0  0  0  0  0  0  0
   13.2572   -0.3502   23.5348 H   0  0  0  0  0  0  0  0  0  0  0  0
    9.9604   -2.6448   22.0372 H   0  0  0  0  0  0  0  0  0  0  0  0
  1  2  1  0
  2  3  1  0
  3  4  1  0
  4  5  1  0
  5  6  1  0
  6  7  1  0
  7  8  2  0
  8  9  1  0
  9 10  2  0
 10 11  1  0
 11 12  2  0
 12 13  1  0
 13 14  2  0
 14 15  1  0
 15 16  2  0
  6 17  1  0
 17 18  2  0
 17 19  1  0
 19 20  1  1
 20 21  1  0
 21 22  1  0
 22 23  1  0
 23 24  2  0
 23 25  1  0
 25 26  1  0
 21 27  1  0
 27 28  2  0
 27 29  1  0
 29 30  2  0
 30 31  1  0
 31 32  2  0
 32 33  1  0
 32 34  1  0
 34 35  2  0
 19  4  1  0
 35 29  1  0
 16  7  1  0
 35 19  1  0
 16 11  1  0
  1 36  1  0
  1 37  1  0
  1 38  1  0
  2 39  1  0
  2 40  1  0
  4 41  1  6
  5 42  1  0
  5 43  1  0
  8 44  1  0
 10 45  1  0
 12 46  1  0
 13 47  1  0
 14 48  1  0
 15 49  1  0
 20 50  1  0
 20 51  1  0
 22 52  1  0
 22 53  1  0
 25 54  1  0
 26 55  1  0
 26 56  1  0
 26 57  1  0
 30 58  1  0
 31 59  1  0
 34 60  1  0
M  END
>  <RMSD>  (83) 
0.1725248269235921

$$$$

     RDKit          3D

 67 72  0  0  0  0  0  0  0  0999 V2000
   -6.7625    2.6541  -23.2194 C   0  0  0  0  0  0  0  0  0  0  0  0
   -7.3129    1.4755  -23.8578 N   0  0  0  0  0  0  0  0  0  0  0  0
   -6.8344    1.0652  -25.0513 C   0  0  0  0  0  0  0  0  0  0  0  0
   -6.0165    1.7001  -25.7055 O   0  0  0  0  0  0  0  0  0  0  0  0
   -7.3299   -0.2860  -25.5804 C   0  0  0  0  0  0  0  0  0  0  0  0
   -8.1488   -1.0786  -24.6856 N   0  0  0  0  0  0  0  0  0  0  0  0
   -7.5832   -2.2891  -24.1202 C   0  0  0  0  0  0  0  0  0  0  0  0
   -8.2305   -2.6402  -22.7548 C   0  0  2  0  0  0  0  0  0  0  0  0
   -7.8775   -1.5341  -21.7269 C   0  0  0  0  0  0  0  0  0  0  0  0
   -8.4094   -0.4517  -21.5929 O   0  0  0  0  0  0  0  0  0  0  0  0
   -6.8093   -1.9808  -20.9744 N   0  0  0  0  0  0  0  0  0  0  0  0
   -6.1754   -1.1569  -20.0033 C   0  0  0  0  0  0  0  0  0  0  0  0
   -6.5467   -1.2430  -18.6878 C   0  0  0  0  0  0  0  0  0  0  0  0
   -6.0146   -0.4993  -17.6816 N   0  0  0  0  0  0  0  0  0  0  0  0
   -5.0749    0.3594  -17.9999 C   0  0  0  0  0  0  0  0  0  0  0  0
   -4.5719    0.5412  -19.3213 C   0  0  0  0  0  0  0  0  0  0  0  0
   -3.5538    1.4878  -19.6304 C   0  0  0  0  0  0  0  0  0  0  0  0
   -3.0986    1.6208  -20.9137 C   0  0  0  0  0  0  0  0  0  0  0  0
   -3.6285    0.8173  -21.9510 C   0  0  0  0  0  0  0  0  0  0  0  0
   -4.6213   -0.0907  -21.6817 C   0  0  0  0  0  0  0  0  0  0  0  0
   -5.1275   -0.2479  -20.3607 C   0  0  0  0  0  0  0  0  0  0  0  0
   -6.3487   -3.3077  -21.3438 C   0  0  0  0  0  0  0  0  0  0  0  0
   -7.5600   -3.8749  -22.0951 C   0  0  2  0  0  0  0  0  0  0  0  0
   -7.2370   -5.0492  -23.0247 C   0  0  0  0  0  0  0  0  0  0  0  0
   -6.8498   -6.2596  -22.3251 N   0  0  0  0  0  0  0  0  0  0  0  0
   -5.6452   -6.4295  -21.6855 C   0  0  0  0  0  0  0  0  0  0  0  0
   -5.5350   -6.9981  -20.0374 S   0  0  0  0  0  0  0  0  0  0  0  0
   -3.8212   -6.9282  -20.1865 C   0  0  0  0  0  0  0  0  0  0  0  0
   -3.3613   -6.5526  -21.3280 N   0  0  0  0  0  0  0  0  0  0  0  0
   -4.3864   -6.2895  -22.2013 C   0  0  0  0  0  0  0  0  0  0  0  0
   -4.0651   -5.8963  -23.6093 C   0  0  0  0  0  0  0  0  0  0  0  0
   -9.7249   -2.7128  -22.9775 C   0  0  0  0  0  0  0  0  0  0  0  0
  -10.5527   -3.5853  -22.2605 C   0  0  0  0  0  0  0  0  0  0  0  0
  -11.9266   -3.5051  -22.3959 C   0  0  0  0  0  0  0  0  0  0  0  0
  -12.9283   -4.5661  -21.4452 Cl  0  0  0  0  0  0  0  0  0  0  0  0
  -12.5255   -2.5786  -23.2525 C   0  0  0  0  0  0  0  0  0  0  0  0
  -11.7126   -1.7274  -23.9784 C   0  0  0  0  0  0  0  0  0  0  0  0
  -10.3247   -1.7901  -23.8509 C   0  0  0  0  0  0  0  0  0  0  0  0
   -9.4944   -0.8341  -24.6593 C   0  0  0  0  0  0  0  0  0  0  0  0
   -9.9780    0.1269  -25.2441 O   0  0  0  0  0  0  0  0  0  0  0  0
   -7.2930    2.8086  -22.2762 H   0  0  0  0  0  0  0  0  0  0  0  0
   -6.8680    3.5441  -23.8488 H   0  0  0  0  0  0  0  0  0  0  0  0
   -5.6981    2.5100  -22.9983 H   0  0  0  0  0  0  0  0  0  0  0  0
   -8.1054    1.0252  -23.4273 H   0  0  0  0  0  0  0  0  0  0  0  0
   -7.8659   -0.1079  -26.5180 H   0  0  0  0  0  0  0  0  0  0  0  0
   -6.4326   -0.8597  -25.8355 H   0  0  0  0  0  0  0  0  0  0  0  0
   -7.7200   -3.1264  -24.8204 H   0  0  0  0  0  0  0  0  0  0  0  0
   -6.5077   -2.1279  -23.9849 H   0  0  0  0  0  0  0  0  0  0  0  0
   -7.3312   -1.9377  -18.3912 H   0  0  0  0  0  0  0  0  0  0  0  0
   -4.6560    0.9657  -17.1925 H   0  0  0  0  0  0  0  0  0  0  0  0
   -3.1534    2.1089  -18.8308 H   0  0  0  0  0  0  0  0  0  0  0  0
   -2.3305    2.3501  -21.1556 H   0  0  0  0  0  0  0  0  0  0  0  0
   -3.2757    0.9421  -22.9723 H   0  0  0  0  0  0  0  0  0  0  0  0
   -5.0345   -0.6993  -22.4820 H   0  0  0  0  0  0  0  0  0  0  0  0
   -6.0792   -3.8991  -20.4657 H   0  0  0  0  0  0  0  0  0  0  0  0
   -5.4595   -3.2757  -21.9978 H   0  0  0  0  0  0  0  0  0  0  0  0
   -8.2334   -4.2437  -21.3168 H   0  0  0  0  0  0  0  0  0  0  0  0
   -6.4319   -4.7737  -23.7073 H   0  0  0  0  0  0  0  0  0  0  0  0
   -8.1106   -5.2832  -23.6439 H   0  0  0  0  0  0  0  0  0  0  0  0
   -7.6185   -6.7781  -21.9309 H   0  0  0  0  0  0  0  0  0  0  0  0
   -3.2073   -7.2140  -19.3472 H   0  0  0  0  0  0  0  0  0  0  0  0
   -3.0580   -6.2200  -23.8809 H   0  0  0  0  0  0  0  0  0  0  0  0
   -4.7781   -6.3301  -24.3158 H   0  0  0  0  0  0  0  0  0  0  0  0
   -4.0982   -4.8075  -23.7336 H   0  0  0  0  0  0  0  0  0  0  0  0
  -10.1360   -4.3330  -21.5929 H   0  0  0  0  0  0  0  0  0  0  0  0
  -13.6084   -2.5294  -23.3276 H   0  0  0  0  0  0  0  0  0  0  0  0
  -12.1452   -0.9965  -24.6542 H   0  0  0  0  0  0  0  0  0  0  0  0
  1  2  1  0
  2  3  1  0
  3  4  2  0
  3  5  1  0
  5  6  1  0
  6  7  1  0
  8  7  1  6
  8  9  1  0
  9 10  2  0
  9 11  1  0
 11 12  1  0
 12 13  2  0
 13 14  1  0
 14 15  2  0
 15 16  1  0
 16 17  2  0
 17 18  1  0
 18 19  2  0
 19 20  1  0
 20 21  2  0
 11 22  1  0
 22 23  1  0
 23 24  1  0
 24 25  1  0
 25 26  1  0
 26 27  1  0
 27 28  1  0
 28 29  2  0
 29 30  1  0
 30 31  1  0
  8 32  1  0
 32 33  2  0
 33 34  1  0
 34 35  1  0
 34 36  2  0
 36 37  1  0
 37 38  2  0
 38 39  1  0
 39 40  2  0
 39  6  1  0
 23  8  1  0
 30 26  2  0
 38 32  1  0
 21 12  1  0
 21 16  1  0
  1 41  1  0
  1 42  1  0
  1 43  1  0
  2 44  1  0
  5 45  1  0
  5 46  1  0
  7 47  1  0
  7 48  1  0
 13 49  1  0
 15 50  1  0
 17 51  1  0
 18 52  1  0
 19 53  1  0
 20 54  1  0
 22 55  1  0
 22 56  1  0
 23 57  1  1
 24 58  1  0
 24 59  1  0
 25 60  1  0
 28 61  1  0
 31 62  1  0
 31 63  1  0
 31 64  1  0
 33 65  1  0
 36 66  1  0
 37 67  1  0
M  END
>  <RMSD>  (84) 
0.05649685545692332

$$$$

     RDKit          3D

 57 61  0  0  0  0  0  0  0  0999 V2000
    6.1128    4.2710   22.3554 C   0  0  0  0  0  0  0  0  0  0  0  0
    6.7076    3.2600   23.1990 N   0  0  0  0  0  0  0  0  0  0  0  0
    6.2146    3.0299   24.4337 C   0  0  0  0  0  0  0  0  0  0  0  0
    5.3371    3.7070   24.9502 O   0  0  0  0  0  0  0  0  0  0  0  0
    6.7694    1.8233   25.2009 C   0  0  0  0  0  0  0  0  0  0  0  0
    7.6667    0.9456   24.4786 N   0  0  0  0  0  0  0  0  0  0  0  0
    7.2019   -0.3818   24.1139 C   0  0  0  0  0  0  0  0  0  0  0  0
    7.9203   -0.9132   22.8466 C   0  0  2  0  0  0  0  0  0  0  0  0
    7.5387   -0.0232   21.6349 C   0  0  0  0  0  0  0  0  0  0  0  0
    8.0108    1.0543   21.3340 O   0  0  0  0  0  0  0  0  0  0  0  0
    6.5306   -0.6601   20.9417 N   0  0  0  0  0  0  0  0  0  0  0  0
    5.8813   -0.0599   19.8302 C   0  0  0  0  0  0  0  0  0  0  0  0
    6.3045   -0.3486   18.5589 C   0  0  0  0  0  0  0  0  0  0  0  0
    5.7671    0.1752   17.4282 N   0  0  0  0  0  0  0  0  0  0  0  0
    4.7642    1.0131   17.5654 C   0  0  0  0  0  0  0  0  0  0  0  0
    4.2018    1.3807   18.8228 C   0  0  0  0  0  0  0  0  0  0  0  0
    3.1178    2.2969   18.9371 C   0  0  0  0  0  0  0  0  0  0  0  0
    2.6090    2.6168   20.1685 C   0  0  0  0  0  0  0  0  0  0  0  0
    3.1472    2.0386   21.3411 C   0  0  0  0  0  0  0  0  0  0  0  0
    4.2044    1.1658   21.2584 C   0  0  0  0  0  0  0  0  0  0  0  0
    4.7650    0.8191   19.9968 C   0  0  0  0  0  0  0  0  0  0  0  0
    6.1377   -1.9275   21.5308 C   0  0  0  0  0  0  0  0  0  0  0  0
    7.3526   -2.2822   22.3927 C   0  0  2  0  0  0  0  0  0  0  0  0
    7.0750   -3.2887   23.5172 C   0  0  0  0  0  0  0  0  0  0  0  0
    6.7512   -4.6231   23.0038 C   0  0  0  0  0  0  0  0  0  0  0  0
    6.4979   -5.6667   22.5745 N   0  0  0  0  0  0  0  0  0  0  0  0
    9.4091   -0.8470   23.1195 C   0  0  0  0  0  0  0  0  0  0  0  0
   10.3139   -1.7719   22.5858 C   0  0  0  0  0  0  0  0  0  0  0  0
   11.6741   -1.5760   22.7428 C   0  0  0  0  0  0  0  0  0  0  0  0
   12.7707   -2.7138   22.0135 Cl  0  0  0  0  0  0  0  0  0  0  0  0
   12.1820   -0.4803   23.4405 C   0  0  0  0  0  0  0  0  0  0  0  0
   11.2924    0.4273   23.9872 C   0  0  0  0  0  0  0  0  0  0  0  0
    9.9145    0.2514   23.8369 C   0  0  0  0  0  0  0  0  0  0  0  0
    8.9946    1.2743   24.4443 C   0  0  0  0  0  0  0  0  0  0  0  0
    9.4017    2.3500   24.8644 O   0  0  0  0  0  0  0  0  0  0  0  0
    6.1404    5.2574   22.8226 H   0  0  0  0  0  0  0  0  0  0  0  0
    5.0723    4.0217   22.1348 H   0  0  0  0  0  0  0  0  0  0  0  0
    6.6642    4.2983   21.4172 H   0  0  0  0  0  0  0  0  0  0  0  0
    7.5519    2.8047   22.8810 H   0  0  0  0  0  0  0  0  0  0  0  0
    7.2584    2.1893   26.1116 H   0  0  0  0  0  0  0  0  0  0  0  0
    5.9035    1.2391   25.5295 H   0  0  0  0  0  0  0  0  0  0  0  0
    6.1257   -0.3221   23.9263 H   0  0  0  0  0  0  0  0  0  0  0  0
    7.3648   -1.0723   24.9527 H   0  0  0  0  0  0  0  0  0  0  0  0
    7.1415   -1.0271   18.4071 H   0  0  0  0  0  0  0  0  0  0  0  0
    4.3362    1.4440   16.6566 H   0  0  0  0  0  0  0  0  0  0  0  0
    2.7056    2.7469   18.0358 H   0  0  0  0  0  0  0  0  0  0  0  0
    1.7867    3.3227   20.2620 H   0  0  0  0  0  0  0  0  0  0  0  0
    2.7499    2.3111   22.3180 H   0  0  0  0  0  0  0  0  0  0  0  0
    4.6239    0.7326   22.1629 H   0  0  0  0  0  0  0  0  0  0  0  0
    5.9511   -2.6745   20.7588 H   0  0  0  0  0  0  0  0  0  0  0  0
    5.2317   -1.8571   22.1532 H   0  0  0  0  0  0  0  0  0  0  0  0
    8.0735   -2.7453   21.7175 H   0  0  0  0  0  0  0  0  0  0  0  0
    6.2414   -2.9524   24.1354 H   0  0  0  0  0  0  0  0  0  0  0  0
    7.9358   -3.3827   24.1859 H   0  0  0  0  0  0  0  0  0  0  0  0
    9.9694   -2.6483   22.0476 H   0  0  0  0  0  0  0  0  0  0  0  0
   13.2562   -0.3458   23.5330 H   0  0  0  0  0  0  0  0  0  0  0  0
   11.6593    1.2879   24.5384 H   0  0  0  0  0  0  0  0  0  0  0  0
  1  2  1  0
  2  3  1  0
  3  4  2  0
  3  5  1  0
  5  6  1  0
  6  7  1  0
  8  7  1  1
  8  9  1  0
  9 10  2  0
  9 11  1  0
 11 12  1  0
 12 13  2  0
 13 14  1  0
 14 15  2  0
 15 16  1  0
 16 17  2  0
 17 18  1  0
 18 19  2  0
 19 20  1  0
 20 21  2  0
 11 22  1  0
 22 23  1  0
 23 24  1  0
 24 25  1  0
 25 26  3  0
  8 27  1  0
 27 28  2  0
 28 29  1  0
 29 30  1  0
 29 31  2  0
 31 32  1  0
 32 33  2  0
 33 34  1  0
 34 35  2  0
 34  6  1  0
 23  8  1  0
 33 27  1  0
 21 12  1  0
 21 16  1  0
  1 36  1  0
  1 37  1  0
  1 38  1  0
  2 39  1  0
  5 40  1  0
  5 41  1  0
  7 42  1  0
  7 43  1  0
 13 44  1  0
 15 45  1  0
 17 46  1  0
 18 47  1  0
 19 48  1  0
 20 49  1  0
 22 50  1  0
 22 51  1  0
 23 52  1  6
 24 53  1  0
 24 54  1  0
 28 55  1  0
 31 56  1  0
 32 57  1  0
M  END
>  <RMSD>  (85) 
0.17216436247350847

$$$$

     RDKit          3D

 60 64  0  0  0  0  0  0  0  0999 V2000
   -6.7629    2.6517  -23.2213 C   0  0  0  0  0  0  0  0  0  0  0  0
   -7.3106    1.4756  -23.8584 N   0  0  0  0  0  0  0  0  0  0  0  0
   -6.8335    1.0648  -25.0520 C   0  0  0  0  0  0  0  0  0  0  0  0
   -6.0155    1.6974  -25.7052 O   0  0  0  0  0  0  0  0  0  0  0  0
   -7.3287   -0.2860  -25.5801 C   0  0  0  0  0  0  0  0  0  0  0  0
   -8.1474   -1.0827  -24.6894 N   0  0  0  0  0  0  0  0  0  0  0  0
   -7.5847   -2.2952  -24.1199 C   0  0  0  0  0  0  0  0  0  0  0  0
   -8.2305   -2.6432  -22.7546 C   0  0  2  0  0  0  0  0  0  0  0  0
   -7.8765   -1.5405  -21.7248 C   0  0  0  0  0  0  0  0  0  0  0  0
   -8.4061   -0.4540  -21.5913 O   0  0  0  0  0  0  0  0  0  0  0  0
   -6.8131   -1.9834  -20.9688 N   0  0  0  0  0  0  0  0  0  0  0  0
   -6.1780   -1.1528  -20.0050 C   0  0  0  0  0  0  0  0  0  0  0  0
   -6.5470   -1.2426  -18.6875 C   0  0  0  0  0  0  0  0  0  0  0  0
   -6.0146   -0.5017  -17.6826 N   0  0  0  0  0  0  0  0  0  0  0  0
   -5.0748    0.3599  -17.9998 C   0  0  0  0  0  0  0  0  0  0  0  0
   -4.5714    0.5407  -19.3221 C   0  0  0  0  0  0  0  0  0  0  0  0
   -3.5533    1.4876  -19.6291 C   0  0  0  0  0  0  0  0  0  0  0  0
   -3.0976    1.6214  -20.9140 C   0  0  0  0  0  0  0  0  0  0  0  0
   -3.6260    0.8174  -21.9517 C   0  0  0  0  0  0  0  0  0  0  0  0
   -4.6203   -0.0910  -21.6832 C   0  0  0  0  0  0  0  0  0  0  0  0
   -5.1276   -0.2473  -20.3622 C   0  0  0  0  0  0  0  0  0  0  0  0
   -6.3474   -3.3054  -21.3497 C   0  0  0  0  0  0  0  0  0  0  0  0
   -7.5592   -3.8808  -22.0981 C   0  0  2  0  0  0  0  0  0  0  0  0
   -7.2069   -5.0448  -23.0095 C   0  0  0  0  0  0  0  0  0  0  0  0
   -8.3518   -5.4929  -23.6974 O   0  0  0  0  0  0  0  0  0  0  0  0
   -8.0344   -6.5158  -24.6109 C   0  0  0  0  0  0  0  0  0  0  0  0
   -9.7253   -2.7153  -22.9786 C   0  0  0  0  0  0  0  0  0  0  0  0
  -10.5517   -3.5835  -22.2556 C   0  0  0  0  0  0  0  0  0  0  0  0
  -11.9261   -3.5071  -22.3951 C   0  0  0  0  0  0  0  0  0  0  0  0
  -12.9272   -4.5712  -21.4473 Cl  0  0  0  0  0  0  0  0  0  0  0  0
  -12.5254   -2.5832  -23.2550 C   0  0  0  0  0  0  0  0  0  0  0  0
  -11.7111   -1.7310  -23.9804 C   0  0  0  0  0  0  0  0  0  0  0  0
  -10.3223   -1.7932  -23.8550 C   0  0  0  0  0  0  0  0  0  0  0  0
   -9.4930   -0.8359  -24.6634 C   0  0  0  0  0  0  0  0  0  0  0  0
   -9.9732    0.1252  -25.2494 O   0  0  0  0  0  0  0  0  0  0  0  0
   -6.8656    3.5426  -23.8489 H   0  0  0  0  0  0  0  0  0  0  0  0
   -7.2925    2.8055  -22.2798 H   0  0  0  0  0  0  0  0  0  0  0  0
   -5.6999    2.5096  -22.9994 H   0  0  0  0  0  0  0  0  0  0  0  0
   -8.1026    1.0188  -23.4260 H   0  0  0  0  0  0  0  0  0  0  0  0
   -6.4330   -0.8606  -25.8341 H   0  0  0  0  0  0  0  0  0  0  0  0
   -7.8659   -0.1087  -26.5185 H   0  0  0  0  0  0  0  0  0  0  0  0
   -6.5105   -2.1352  -23.9819 H   0  0  0  0  0  0  0  0  0  0  0  0
   -7.7231   -3.1359  -24.8133 H   0  0  0  0  0  0  0  0  0  0  0  0
   -7.3290   -1.9376  -18.3911 H   0  0  0  0  0  0  0  0  0  0  0  0
   -4.6573    0.9644  -17.1922 H   0  0  0  0  0  0  0  0  0  0  0  0
   -3.1550    2.1093  -18.8278 H   0  0  0  0  0  0  0  0  0  0  0  0
   -2.3295    2.3522  -21.1559 H   0  0  0  0  0  0  0  0  0  0  0  0
   -3.2748    0.9426  -22.9750 H   0  0  0  0  0  0  0  0  0  0  0  0
   -5.0345   -0.7013  -22.4822 H   0  0  0  0  0  0  0  0  0  0  0  0
   -5.4584   -3.2806  -22.0056 H   0  0  0  0  0  0  0  0  0  0  0  0
   -6.0808   -3.8845  -20.4630 H   0  0  0  0  0  0  0  0  0  0  0  0
   -8.2454   -4.2531  -21.3375 H   0  0  0  0  0  0  0  0  0  0  0  0
   -6.4393   -4.7282  -23.7305 H   0  0  0  0  0  0  0  0  0  0  0  0
   -6.7750   -5.8737  -22.4241 H   0  0  0  0  0  0  0  0  0  0  0  0
   -8.9604   -6.8551  -25.0827 H   0  0  0  0  0  0  0  0  0  0  0  0
   -7.3444   -6.1682  -25.3966 H   0  0  0  0  0  0  0  0  0  0  0  0
   -7.5554   -7.3725  -24.1122 H   0  0  0  0  0  0  0  0  0  0  0  0
  -10.1259   -4.3351  -21.5984 H   0  0  0  0  0  0  0  0  0  0  0  0
  -13.6090   -2.5345  -23.3302 H   0  0  0  0  0  0  0  0  0  0  0  0
  -12.1398   -0.9986  -24.6574 H   0  0  0  0  0  0  0  0  0  0  0  0
  1  2  1  0
  2  3  1  0
  3  4  2  0
  3  5  1  0
  5  6  1  0
  6  7  1  0
  8  7  1  6
  8  9  1  0
  9 10  2  0
  9 11  1  0
 11 12  1  0
 12 13  2  0
 13 14  1  0
 14 15  2  0
 15 16  1  0
 16 17  2  0
 17 18  1  0
 18 19  2  0
 19 20  1  0
 20 21  2  0
 11 22  1  0
 22 23  1  0
 23 24  1  0
 24 25  1  0
 25 26  1  0
  8 27  1  0
 27 28  2  0
 28 29  1  0
 29 30  1  0
 29 31  2  0
 31 32  1  0
 32 33  2  0
 33 34  1  0
 34 35  2  0
 34  6  1  0
 23  8  1  0
 33 27  1  0
 21 12  1  0
 21 16  1  0
  1 36  1  0
  1 37  1  0
  1 38  1  0
  2 39  1  0
  5 40  1  0
  5 41  1  0
  7 42  1  0
  7 43  1  0
 13 44  1  0
 15 45  1  0
 17 46  1  0
 18 47  1  0
 19 48  1  0
 20 49  1  0
 22 50  1  0
 22 51  1  0
 23 52  1  1
 24 53  1  0
 24 54  1  0
 26 55  1  0
 26 56  1  0
 26 57  1  0
 28 58  1  0
 31 59  1  0
 32 60  1  0
M  END
>  <RMSD>  (86) 
0.05748075434404469

$$$$

     RDKit          3D

 67 72  0  0  0  0  0  0  0  0999 V2000
    7.1710   -3.2595   23.4974 C   0  0  0  0  0  0  0  0  0  0  0  0
    7.3809   -2.2603   22.3703 C   0  0  1  0  0  0  0  0  0  0  0  0
    6.1227   -1.9406   21.5518 C   0  0  0  0  0  0  0  0  0  0  0  0
    6.4989   -0.6944   20.9052 N   0  0  0  0  0  0  0  0  0  0  0  0
    5.8491   -0.0965   19.8061 C   0  0  0  0  0  0  0  0  0  0  0  0
    6.3173   -0.3357   18.5385 C   0  0  0  0  0  0  0  0  0  0  0  0
    5.7853    0.2013   17.4160 N   0  0  0  0  0  0  0  0  0  0  0  0
    4.7661    1.0151   17.5771 C   0  0  0  0  0  0  0  0  0  0  0  0
    4.2042    1.3689   18.8383 C   0  0  0  0  0  0  0  0  0  0  0  0
    3.1214    2.2840   18.9431 C   0  0  0  0  0  0  0  0  0  0  0  0
    2.6121    2.6173   20.1709 C   0  0  0  0  0  0  0  0  0  0  0  0
    3.1579    2.0593   21.3484 C   0  0  0  0  0  0  0  0  0  0  0  0
    4.2038    1.1660   21.2721 C   0  0  0  0  0  0  0  0  0  0  0  0
    4.7523    0.7947   20.0066 C   0  0  0  0  0  0  0  0  0  0  0  0
    7.6450   -0.1245   21.4095 C   0  0  0  0  0  0  0  0  0  0  0  0
    8.2473    0.7905   20.8771 O   0  0  0  0  0  0  0  0  0  0  0  0
    7.9753   -0.8589   22.7282 C   0  0  1  0  0  0  0  0  0  0  0  0
    7.2267   -0.1969   23.9189 C   0  0  0  0  0  0  0  0  0  0  0  0
    7.8380    1.0604   24.3115 N   0  0  0  0  0  0  0  0  0  0  0  0
    7.0638    2.2831   24.4404 C   0  0  0  0  0  0  0  0  0  0  0  0
    7.0189    3.0576   23.1185 C   0  0  0  0  0  0  0  0  0  0  0  0
    6.2458    4.2864   23.2377 N   0  0  0  0  0  0  0  0  0  0  0  0
    5.6707    4.7236   21.9715 C   0  0  0  0  0  0  0  0  0  0  0  0
    4.5392    5.7271   22.1802 C   0  0  0  0  0  0  0  0  0  0  0  0
    5.1100    7.1841   23.0606 S   0  0  0  0  0  0  0  0  0  0  0  0
    3.9623    7.8807   23.6335 O   0  0  0  0  0  0  0  0  0  0  0  0
    6.0527    7.8882   22.1907 O   0  0  0  0  0  0  0  0  0  0  0  0
    6.0717    6.4616   24.3913 C   0  0  0  0  0  0  0  0  0  0  0  0
    7.0003    5.3739   23.8547 C   0  0  0  0  0  0  0  0  0  0  0  0
    9.1583    1.0857   24.6649 C   0  0  0  0  0  0  0  0  0  0  0  0
    9.6343    1.9163   25.4251 O   0  0  0  0  0  0  0  0  0  0  0  0
    9.9997    0.0459   23.9868 C   0  0  0  0  0  0  0  0  0  0  0  0
   11.3670    0.0527   24.2496 C   0  0  0  0  0  0  0  0  0  0  0  0
   12.2281   -0.7083   23.4854 C   0  0  0  0  0  0  0  0  0  0  0  0
   11.6949   -1.4923   22.4648 C   0  0  0  0  0  0  0  0  0  0  0  0
   12.7572   -2.4001   21.4353 Cl  0  0  0  0  0  0  0  0  0  0  0  0
   10.3339   -1.5766   22.2452 C   0  0  0  0  0  0  0  0  0  0  0  0
    9.4557   -0.8152   23.0228 C   0  0  0  0  0  0  0  0  0  0  0  0
    6.8788   -4.2308   23.0825 H   0  0  0  0  0  0  0  0  0  0  0  0
    8.0894   -3.3995   24.0768 H   0  0  0  0  0  0  0  0  0  0  0  0
    6.3803   -2.9327   24.1820 H   0  0  0  0  0  0  0  0  0  0  0  0
    8.0843   -2.6989   21.6563 H   0  0  0  0  0  0  0  0  0  0  0  0
    5.9003   -2.7143   20.8097 H   0  0  0  0  0  0  0  0  0  0  0  0
    5.2335   -1.8361   22.1943 H   0  0  0  0  0  0  0  0  0  0  0  0
    7.1750   -0.9913   18.4065 H   0  0  0  0  0  0  0  0  0  0  0  0
    4.3299    1.4479   16.6782 H   0  0  0  0  0  0  0  0  0  0  0  0
    2.7148    2.7096   18.0300 H   0  0  0  0  0  0  0  0  0  0  0  0
    1.7788    3.3109   20.2455 H   0  0  0  0  0  0  0  0  0  0  0  0
    2.7628    2.3600   22.3185 H   0  0  0  0  0  0  0  0  0  0  0  0
    4.6072    0.7506   22.1902 H   0  0  0  0  0  0  0  0  0  0  0  0
    6.1775   -0.0016   23.6727 H   0  0  0  0  0  0  0  0  0  0  0  0
    7.2579   -0.8891   24.7737 H   0  0  0  0  0  0  0  0  0  0  0  0
    6.0446    2.0192   24.7441 H   0  0  0  0  0  0  0  0  0  0  0  0
    7.5268    2.8713   25.2398 H   0  0  0  0  0  0  0  0  0  0  0  0
    8.0446    3.2461   22.7575 H   0  0  0  0  0  0  0  0  0  0  0  0
    6.5663    2.4043   22.3634 H   0  0  0  0  0  0  0  0  0  0  0  0
    5.2489    3.8587   21.4523 H   0  0  0  0  0  0  0  0  0  0  0  0
    6.4335    5.1540   21.2990 H   0  0  0  0  0  0  0  0  0  0  0  0
    4.1436    6.0912   21.2265 H   0  0  0  0  0  0  0  0  0  0  0  0
    3.7172    5.2925   22.7556 H   0  0  0  0  0  0  0  0  0  0  0  0
    5.3726    6.0736   25.1374 H   0  0  0  0  0  0  0  0  0  0  0  0
    6.6268    7.2957   24.8313 H   0  0  0  0  0  0  0  0  0  0  0  0
    7.5804    4.9914   24.6982 H   0  0  0  0  0  0  0  0  0  0  0  0
    7.7283    5.8215   23.1552 H   0  0  0  0  0  0  0  0  0  0  0  0
   11.7241    0.7014   25.0405 H   0  0  0  0  0  0  0  0  0  0  0  0
   13.3003   -0.6601   23.6344 H   0  0  0  0  0  0  0  0  0  0  0  0
    9.9717   -2.2097   21.4429 H   0  0  0  0  0  0  0  0  0  0  0  0
  1  2  1  0
  2  3  1  0
  3  4  1  0
  4  5  1  0
  5  6  2  0
  6  7  1  0
  7  8  2  0
  8  9  1  0
  9 10  2  0
 10 11  1  0
 11 12  2  0
 12 13  1  0
 13 14  2  0
  4 15  1  0
 15 16  2  0
 15 17  1  0
 17 18  1  1
 18 19  1  0
 19 20  1  0
 20 21  1  0
 21 22  1  0
 22 23  1  0
 23 24  1  0
 24 25  1  0
 25 26  2  0
 25 27  2  0
 25 28  1  0
 28 29  1  0
 19 30  1  0
 30 31  2  0
 30 32  1  0
 32 33  2  0
 33 34  1  0
 34 35  2  0
 35 36  1  0
 35 37  1  0
 37 38  2  0
 17  2  1  0
 29 22  1  0
 38 32  1  0
 14  5  1  0
 38 17  1  0
 14  9  1  0
  1 39  1  0
  1 40  1  0
  1 41  1  0
  2 42  1  6
  3 43  1  0
  3 44  1  0
  6 45  1  0
  8 46  1  0
 10 47  1  0
 11 48  1  0
 12 49  1  0
 13 50  1  0
 18 51  1  0
 18 52  1  0
 20 53  1  0
 20 54  1  0
 21 55  1  0
 21 56  1  0
 23 57  1  0
 23 58  1  0
 24 59  1  0
 24 60  1  0
 28 61  1  0
 28 62  1  0
 29 63  1  0
 29 64  1  0
 33 65  1  0
 34 66  1  0
 37 67  1  0
M  END
>  <RMSD>  (87) 
0.18820830464917757

$$$$

     RDKit          3D

 66 71  0  0  0  0  0  0  0  0999 V2000
   -6.7620    2.6518  -23.2218 C   0  0  0  0  0  0  0  0  0  0  0  0
   -7.3091    1.4753  -23.8589 N   0  0  0  0  0  0  0  0  0  0  0  0
   -6.8314    1.0648  -25.0525 C   0  0  0  0  0  0  0  0  0  0  0  0
   -6.0136    1.6978  -25.7057 O   0  0  0  0  0  0  0  0  0  0  0  0
   -7.3261   -0.2862  -25.5804 C   0  0  0  0  0  0  0  0  0  0  0  0
   -8.1442   -1.0827  -24.6896 N   0  0  0  0  0  0  0  0  0  0  0  0
   -7.5812   -2.2956  -24.1213 C   0  0  0  0  0  0  0  0  0  0  0  0
   -8.2257   -2.6436  -22.7561 C   0  0  2  0  0  0  0  0  0  0  0  0
   -7.8758   -1.5396  -21.7268 C   0  0  0  0  0  0  0  0  0  0  0  0
   -8.4065   -0.4530  -21.5942 O   0  0  0  0  0  0  0  0  0  0  0  0
   -6.8193   -1.9872  -20.9653 N   0  0  0  0  0  0  0  0  0  0  0  0
   -6.1794   -1.1543  -20.0061 C   0  0  0  0  0  0  0  0  0  0  0  0
   -6.5467   -1.2422  -18.6879 C   0  0  0  0  0  0  0  0  0  0  0  0
   -6.0137   -0.5016  -17.6834 N   0  0  0  0  0  0  0  0  0  0  0  0
   -5.0743    0.3599  -18.0004 C   0  0  0  0  0  0  0  0  0  0  0  0
   -4.5714    0.5405  -19.3227 C   0  0  0  0  0  0  0  0  0  0  0  0
   -3.5532    1.4880  -19.6290 C   0  0  0  0  0  0  0  0  0  0  0  0
   -3.0969    1.6221  -20.9137 C   0  0  0  0  0  0  0  0  0  0  0  0
   -3.6250    0.8178  -21.9515 C   0  0  0  0  0  0  0  0  0  0  0  0
   -4.6193   -0.0908  -21.6832 C   0  0  0  0  0  0  0  0  0  0  0  0
   -5.1280   -0.2478  -20.3629 C   0  0  0  0  0  0  0  0  0  0  0  0
   -6.3435   -3.3052  -21.3528 C   0  0  0  0  0  0  0  0  0  0  0  0
   -7.5625   -3.8855  -22.0897 C   0  0  2  0  0  0  0  0  0  0  0  0
   -7.3449   -5.1395  -22.9780 C   0  0  0  0  0  0  0  0  0  0  0  0
   -5.9557   -5.3542  -23.5366 C   0  0  0  0  0  0  0  0  0  0  0  0
   -4.9452   -5.8392  -22.7009 C   0  0  0  0  0  0  0  0  0  0  0  0
   -3.6472   -6.0151  -23.1636 C   0  0  0  0  0  0  0  0  0  0  0  0
   -3.3307   -5.7139  -24.4832 C   0  0  0  0  0  0  0  0  0  0  0  0
   -4.3284   -5.2479  -25.3327 C   0  0  0  0  0  0  0  0  0  0  0  0
   -5.6280   -5.0737  -24.8628 C   0  0  0  0  0  0  0  0  0  0  0  0
   -9.7214   -2.7153  -22.9792 C   0  0  0  0  0  0  0  0  0  0  0  0
  -10.5483   -3.5911  -22.2654 C   0  0  0  0  0  0  0  0  0  0  0  0
  -11.9233   -3.5115  -22.4010 C   0  0  0  0  0  0  0  0  0  0  0  0
  -12.9237   -4.5739  -21.4497 Cl  0  0  0  0  0  0  0  0  0  0  0  0
  -12.5228   -2.5850  -23.2570 C   0  0  0  0  0  0  0  0  0  0  0  0
  -11.7085   -1.7321  -23.9820 C   0  0  0  0  0  0  0  0  0  0  0  0
  -10.3194   -1.7921  -23.8539 C   0  0  0  0  0  0  0  0  0  0  0  0
   -9.4896   -0.8359  -24.6642 C   0  0  0  0  0  0  0  0  0  0  0  0
   -9.9712    0.1242  -25.2514 O   0  0  0  0  0  0  0  0  0  0  0  0
   -5.6990    2.5101  -22.9997 H   0  0  0  0  0  0  0  0  0  0  0  0
   -7.2917    2.8053  -22.2804 H   0  0  0  0  0  0  0  0  0  0  0  0
   -6.8650    3.5427  -23.8493 H   0  0  0  0  0  0  0  0  0  0  0  0
   -8.1011    1.0183  -23.4273 H   0  0  0  0  0  0  0  0  0  0  0  0
   -6.4308   -0.8616  -25.8339 H   0  0  0  0  0  0  0  0  0  0  0  0
   -7.8627   -0.1090  -26.5192 H   0  0  0  0  0  0  0  0  0  0  0  0
   -7.7271   -3.1346  -24.8147 H   0  0  0  0  0  0  0  0  0  0  0  0
   -6.5064   -2.1464  -23.9926 H   0  0  0  0  0  0  0  0  0  0  0  0
   -7.3284   -1.9372  -18.3911 H   0  0  0  0  0  0  0  0  0  0  0  0
   -4.6572    0.9646  -17.1924 H   0  0  0  0  0  0  0  0  0  0  0  0
   -3.1551    2.1097  -18.8276 H   0  0  0  0  0  0  0  0  0  0  0  0
   -2.3289    2.3532  -21.1553 H   0  0  0  0  0  0  0  0  0  0  0  0
   -3.2735    0.9434  -22.9747 H   0  0  0  0  0  0  0  0  0  0  0  0
   -5.0335   -0.7003  -22.4830 H   0  0  0  0  0  0  0  0  0  0  0  0
   -5.4557   -3.2601  -22.0056 H   0  0  0  0  0  0  0  0  0  0  0  0
   -6.0709   -3.8816  -20.4664 H   0  0  0  0  0  0  0  0  0  0  0  0
   -8.2497   -4.1751  -21.2891 H   0  0  0  0  0  0  0  0  0  0  0  0
   -7.6121   -6.0286  -22.3924 H   0  0  0  0  0  0  0  0  0  0  0  0
   -8.0731   -5.1157  -23.7971 H   0  0  0  0  0  0  0  0  0  0  0  0
   -5.1845   -6.0547  -21.6625 H   0  0  0  0  0  0  0  0  0  0  0  0
   -2.8800   -6.3777  -22.4881 H   0  0  0  0  0  0  0  0  0  0  0  0
   -2.3185   -5.8537  -24.8487 H   0  0  0  0  0  0  0  0  0  0  0  0
   -4.0999   -5.0259  -26.3705 H   0  0  0  0  0  0  0  0  0  0  0  0
   -6.3996   -4.7205  -25.5430 H   0  0  0  0  0  0  0  0  0  0  0  0
  -10.1252   -4.3421  -21.6062 H   0  0  0  0  0  0  0  0  0  0  0  0
  -13.6064   -2.5364  -23.3322 H   0  0  0  0  0  0  0  0  0  0  0  0
  -12.1374   -1.0005  -24.6596 H   0  0  0  0  0  0  0  0  0  0  0  0
  1  2  1  0
  2  3  1  0
  3  4  2  0
  3  5  1  0
  5  6  1  0
  6  7  1  0
  8  7  1  6
  8  9  1  0
  9 10  2  0
  9 11  1  0
 11 12  1  0
 12 13  2  0
 13 14  1  0
 14 15  2  0
 15 16  1  0
 16 17  2  0
 17 18  1  0
 18 19  2  0
 19 20  1  0
 20 21  2  0
 11 22  1  0
 22 23  1  0
 23 24  1  0
 24 25  1  0
 25 26  2  0
 26 27  1  0
 27 28  2  0
 28 29  1  0
 29 30  2  0
  8 31  1  0
 31 32  2  0
 32 33  1  0
 33 34  1  0
 33 35  2  0
 35 36  1  0
 36 37  2  0
 37 38  1  0
 38 39  2  0
 38  6  1  0
 23  8  1  0
 30 25  1  0
 37 31  1  0
 21 12  1  0
 21 16  1  0
  1 40  1  0
  1 41  1  0
  1 42  1  0
  2 43  1  0
  5 44  1  0
  5 45  1  0
  7 46  1  0
  7 47  1  0
 13 48  1  0
 15 49  1  0
 17 50  1  0
 18 51  1  0
 19 52  1  0
 20 53  1  0
 22 54  1  0
 22 55  1  0
 23 56  1  1
 24 57  1  0
 24 58  1  0
 26 59  1  0
 27 60  1  0
 28 61  1  0
 29 62  1  0
 30 63  1  0
 32 64  1  0
 35 65  1  0
 36 66  1  0
M  END
>  <RMSD>  (88) 
0.057881857830002374

$$$$

     RDKit          3D

 50 54  0  0  0  0  0  0  0  0999 V2000
   -7.3239   -5.0568  -22.9692 C   0  0  0  0  0  0  0  0  0  0  0  0
   -7.5986   -3.8791  -22.0344 C   0  0  1  0  0  0  0  0  0  0  0  0
   -6.3449   -3.3213  -21.3350 C   0  0  0  0  0  0  0  0  0  0  0  0
   -6.7813   -1.9944  -20.9451 N   0  0  0  0  0  0  0  0  0  0  0  0
   -6.1504   -1.1732  -19.9852 C   0  0  0  0  0  0  0  0  0  0  0  0
   -6.5499   -1.2360  -18.6740 C   0  0  0  0  0  0  0  0  0  0  0  0
   -6.0253   -0.4818  -17.6758 N   0  0  0  0  0  0  0  0  0  0  0  0
   -5.0787    0.3645  -18.0090 C   0  0  0  0  0  0  0  0  0  0  0  0
   -4.5815    0.5370  -19.3332 C   0  0  0  0  0  0  0  0  0  0  0  0
   -3.5627    1.4754  -19.6354 C   0  0  0  0  0  0  0  0  0  0  0  0
   -3.1015    1.6181  -20.9143 C   0  0  0  0  0  0  0  0  0  0  0  0
   -3.6385    0.8324  -21.9573 C   0  0  0  0  0  0  0  0  0  0  0  0
   -4.6320   -0.0785  -21.6947 C   0  0  0  0  0  0  0  0  0  0  0  0
   -5.1265   -0.2501  -20.3697 C   0  0  0  0  0  0  0  0  0  0  0  0
   -7.9667   -1.6016  -21.5273 C   0  0  0  0  0  0  0  0  0  0  0  0
   -8.5977   -0.6271  -21.1814 O   0  0  0  0  0  0  0  0  0  0  0  0
   -8.2888   -2.6223  -22.6421 C   0  0  1  0  0  0  0  0  0  0  0  0
   -7.6294   -2.1858  -23.9653 C   0  0  0  0  0  0  0  0  0  0  0  0
   -8.3506   -1.0761  -24.5511 N   0  0  0  0  0  0  0  0  0  0  0  0
   -7.7020    0.1794  -24.8133 C   0  0  0  0  0  0  0  0  0  0  0  0
   -7.6761    1.1559  -23.6983 C   0  0  0  0  0  0  0  0  0  0  0  0
   -7.5748    1.9864  -22.8993 N   0  0  0  0  0  0  0  0  0  0  0  0
   -9.6715   -1.2350  -24.9027 C   0  0  0  0  0  0  0  0  0  0  0  0
  -10.1875   -0.6647  -25.8476 O   0  0  0  0  0  0  0  0  0  0  0  0
  -10.4198   -2.1203  -23.9536 C   0  0  0  0  0  0  0  0  0  0  0  0
  -11.8043   -2.1866  -24.1089 C   0  0  0  0  0  0  0  0  0  0  0  0
  -12.5848   -2.8224  -23.1603 C   0  0  0  0  0  0  0  0  0  0  0  0
  -11.9437   -3.3991  -22.0670 C   0  0  0  0  0  0  0  0  0  0  0  0
  -12.6914   -3.9901  -21.1169 F   0  0  0  0  0  0  0  0  0  0  0  0
  -10.5741   -3.3627  -21.8983 C   0  0  0  0  0  0  0  0  0  0  0  0
   -9.7776   -2.7321  -22.8635 C   0  0  0  0  0  0  0  0  0  0  0  0
   -6.9518   -5.9275  -22.4102 H   0  0  0  0  0  0  0  0  0  0  0  0
   -6.5622   -4.8107  -23.7221 H   0  0  0  0  0  0  0  0  0  0  0  0
   -8.2311   -5.3660  -23.5049 H   0  0  0  0  0  0  0  0  0  0  0  0
   -8.2752   -4.2257  -21.2443 H   0  0  0  0  0  0  0  0  0  0  0  0
   -5.4863   -3.2802  -22.0279 H   0  0  0  0  0  0  0  0  0  0  0  0
   -6.0334   -3.8995  -20.4553 H   0  0  0  0  0  0  0  0  0  0  0  0
   -7.3435   -1.9260  -18.3906 H   0  0  0  0  0  0  0  0  0  0  0  0
   -4.6415    0.9639  -17.2108 H   0  0  0  0  0  0  0  0  0  0  0  0
   -3.1674    2.0747  -18.8222 H   0  0  0  0  0  0  0  0  0  0  0  0
   -2.3252    2.3430  -21.1404 H   0  0  0  0  0  0  0  0  0  0  0  0
   -3.2651    0.9532  -22.9696 H   0  0  0  0  0  0  0  0  0  0  0  0
   -5.0326   -0.6843  -22.5029 H   0  0  0  0  0  0  0  0  0  0  0  0
   -7.6375   -3.0293  -24.6671 H   0  0  0  0  0  0  0  0  0  0  0  0
   -6.5940   -1.8750  -23.8002 H   0  0  0  0  0  0  0  0  0  0  0  0
   -6.6703   -0.0217  -25.1028 H   0  0  0  0  0  0  0  0  0  0  0  0
   -8.2292    0.6160  -25.6627 H   0  0  0  0  0  0  0  0  0  0  0  0
  -12.2373   -1.7012  -24.9798 H   0  0  0  0  0  0  0  0  0  0  0  0
  -13.6684   -2.8652  -23.2246 H   0  0  0  0  0  0  0  0  0  0  0  0
  -10.1483   -3.8183  -21.0104 H   0  0  0  0  0  0  0  0  0  0  0  0
  1  2  1  0
  2  3  1  0
  3  4  1  0
  4  5  1  0
  5  6  2  0
  6  7  1  0
  7  8  2  0
  8  9  1  0
  9 10  2  0
 10 11  1  0
 11 12  2  0
 12 13  1  0
 13 14  2  0
  4 15  1  0
 15 16  2  0
 15 17  1  0
 17 18  1  6
 18 19  1  0
 19 20  1  0
 20 21  1  0
 21 22  3  0
 19 23  1  0
 23 24  2  0
 23 25  1  0
 25 26  2  0
 26 27  1  0
 27 28  2  0
 28 29  1  0
 28 30  1  0
 30 31  2  0
 17  2  1  0
 31 25  1  0
 14  5  1  0
 31 17  1  0
 14  9  1  0
  1 32  1  0
  1 33  1  0
  1 34  1  0
  2 35  1  1
  3 36  1  0
  3 37  1  0
  6 38  1  0
  8 39  1  0
 10 40  1  0
 11 41  1  0
 12 42  1  0
 13 43  1  0
 18 44  1  0
 18 45  1  0
 20 46  1  0
 20 47  1  0
 26 48  1  0
 27 49  1  0
 30 50  1  0
M  END
>  <RMSD>  (89) 
0.06555888614720871

$$$$

     RDKit          3D

 31 36  0  0  0  0  0  0  0  0999 V2000
   -8.4496    0.7755  -21.2948 O   0  0  0  0  0  0  0  0  0  0  0  0
   -8.3620   -0.3278  -21.8104 C   0  0  0  0  0  0  0  0  0  0  0  0
   -7.4530   -1.4081  -21.2306 C   0  0  0  0  0  0  0  0  0  0  0  0
   -6.5850   -0.8590  -20.1499 C   0  0  0  0  0  0  0  0  0  0  0  0
   -6.9132   -1.0570  -18.8352 C   0  0  0  0  0  0  0  0  0  0  0  0
   -6.2443   -0.5462  -17.7692 N   0  0  0  0  0  0  0  0  0  0  0  0
   -5.2041    0.2078  -18.0510 C   0  0  0  0  0  0  0  0  0  0  0  0
   -4.7616    0.5189  -19.3677 C   0  0  0  0  0  0  0  0  0  0  0  0
   -3.6400    1.3497  -19.6035 C   0  0  0  0  0  0  0  0  0  0  0  0
   -3.2443    1.6426  -20.8817 C   0  0  0  0  0  0  0  0  0  0  0  0
   -3.9592    1.1171  -21.9805 C   0  0  0  0  0  0  0  0  0  0  0  0
   -5.0496    0.3093  -21.7783 C   0  0  0  0  0  0  0  0  0  0  0  0
   -5.4766   -0.0191  -20.4602 C   0  0  0  0  0  0  0  0  0  0  0  0
   -9.0762   -0.6664  -22.9342 N   0  0  0  0  0  0  0  0  0  0  0  0
   -9.1151   -2.0010  -23.5417 C   0  0  0  0  0  0  0  0  0  0  0  0
   -8.4981   -2.1009  -24.9305 C   0  0  0  0  0  0  0  0  0  0  0  0
   -7.2034   -1.6507  -25.1995 C   0  0  0  0  0  0  0  0  0  0  0  0
   -6.6555   -1.7646  -26.4753 C   0  0  0  0  0  0  0  0  0  0  0  0
   -7.3986   -2.2866  -27.5276 C   0  0  0  0  0  0  0  0  0  0  0  0
   -8.6881   -2.7239  -27.2592 C   0  0  0  0  0  0  0  0  0  0  0  0
   -9.6790   -3.3102  -28.5656 Cl  0  0  0  0  0  0  0  0  0  0  0  0
   -9.2229   -2.6798  -25.9754 C   0  0  0  0  0  0  0  0  0  0  0  0
   -9.7877    0.4149  -23.5619 C   0  0  2  0  0  0  0  0  0  0  0  0
   -8.9701    1.4832  -24.3237 C   0  0  0  0  0  0  0  0  0  0  0  0
  -10.1184    2.3363  -24.8306 N   0  0  1  0  0  0  0  0  0  0  0  0
  -10.1121    2.7334  -26.2446 C   0  0  0  0  0  0  0  0  0  0  0  0
   -9.2647    3.8924  -26.6671 C   0  0  0  0  0  0  0  0  0  0  0  0
  -10.7660    4.0269  -26.6348 C   0  0  0  0  0  0  0  0  0  0  0  0
  -11.2885    1.5096  -24.3280 C   0  0  2  0  0  0  0  0  0  0  0  0
  -10.8705    1.2766  -22.8751 C   0  0  0  0  0  0  0  0  0  0  0  0
  -10.8235    0.0905  -24.6365 C   0  0  0  0  0  0  0  0  0  0  0  0
  1  2  2  0
  2  3  1  0
  3  4  1  0
  4  5  2  0
  5  6  1  0
  6  7  2  0
  7  8  1  0
  8  9  2  0
  9 10  1  0
 10 11  2  0
 11 12  1  0
 12 13  2  0
  2 14  1  0
 14 15  1  0
 15 16  1  0
 16 17  2  0
 17 18  1  0
 18 19  2  0
 19 20  1  0
 20 21  1  0
 20 22  2  0
 23 14  1  1
 23 24  1  0
 24 25  1  0
 25 26  1  6
 26 27  1  0
 27 28  1  0
 25 29  1  0
 29 30  1  1
 29 31  1  0
 13  4  1  0
 22 16  1  0
 30 23  1  0
 13  8  1  0
 31 23  1  0
 28 26  1  0
M  CHG  1  25   1
M  END
>  <cnnaffinities>  (90) 
[5.70351, 5.67636, 5.97704, 5.54472, 5.33434, 5.71709, 5.5839, 5.89788, 5.59719, 5.85194, 5.81647]

>  <score>  (90) 
5.70351

>  <index>  (90) 
47

>  <Smiles>  (90) 
O=C(C(c1c(nc(c2c(c(c(c(c12)[H])[H])[H])[H])[H])[H])([H])[H])N(C(c1c(c(c(c(Cl)c1[H])[H])[H])[H])([H])[H])[C@]12C([N@@+](C3(C(C3([H])[H])([H])[H])[H])([C@](C1([H])[H])(C2([H])[H])[H])[H])([H])[H]

>  <h>  (90) 
<NA>

>  <Training>  (90) 
True

>  <Success>  (90) 
True

>  <enamine_searched>  (90) 
False

>  <enamine_id>  (90) 
nan

$$$$

     RDKit          3D

 46 48  0  0  0  0  0  0  0  0999 V2000
   -8.7267   -1.0711  -27.8788 C   0  0  0  0  0  0  0  0  0  0  0  0
   -9.4885   -0.6457  -26.6151 C   0  0  0  0  0  0  0  0  0  0  0  0
   -9.2324    0.8346  -26.3218 C   0  0  0  0  0  0  0  0  0  0  0  0
   -9.1251   -1.5826  -25.4310 C   0  0  0  0  0  0  0  0  0  0  0  0
  -10.0939   -1.5263  -24.2270 C   0  0  0  0  0  0  0  0  0  0  0  0
   -9.7253   -2.5667  -23.1651 C   0  0  0  0  0  0  0  0  0  0  0  0
   -8.3259   -2.4832  -22.7609 N   0  0  0  0  0  0  0  0  0  0  0  0
   -8.0174   -1.8164  -21.5838 C   0  0  0  0  0  0  0  0  0  0  0  0
   -8.7843   -1.0281  -21.0614 O   0  0  0  0  0  0  0  0  0  0  0  0
   -6.6803   -2.2206  -20.9495 C   0  0  0  0  0  0  0  0  0  0  0  0
   -6.1019   -1.2350  -19.9775 C   0  0  0  0  0  0  0  0  0  0  0  0
   -6.5216   -1.2580  -18.6748 C   0  0  0  0  0  0  0  0  0  0  0  0
   -6.0368   -0.4701  -17.6794 N   0  0  0  0  0  0  0  0  0  0  0  0
   -5.0877    0.3762  -18.0105 C   0  0  0  0  0  0  0  0  0  0  0  0
   -4.5620    0.5232  -19.3228 C   0  0  0  0  0  0  0  0  0  0  0  0
   -3.5526    1.4721  -19.6309 C   0  0  0  0  0  0  0  0  0  0  0  0
   -3.1039    1.6178  -20.9129 C   0  0  0  0  0  0  0  0  0  0  0  0
   -3.6438    0.8215  -21.9460 C   0  0  0  0  0  0  0  0  0  0  0  0
   -4.6129   -0.1155  -21.6746 C   0  0  0  0  0  0  0  0  0  0  0  0
   -5.0971   -0.2929  -20.3510 C   0  0  0  0  0  0  0  0  0  0  0  0
   -7.4057   -2.5498  -23.8951 C   0  0  0  0  0  0  0  0  0  0  0  0
   -7.6935   -1.4124  -24.8801 C   0  0  0  0  0  0  0  0  0  0  0  0
   -7.6441   -1.0323  -27.7241 H   0  0  0  0  0  0  0  0  0  0  0  0
   -8.9705   -2.0960  -28.1725 H   0  0  0  0  0  0  0  0  0  0  0  0
   -8.9313   -0.4150  -28.7302 H   0  0  0  0  0  0  0  0  0  0  0  0
  -10.5639   -0.7852  -26.8111 H   0  0  0  0  0  0  0  0  0  0  0  0
   -9.5814    1.4908  -27.1285 H   0  0  0  0  0  0  0  0  0  0  0  0
   -8.1559    1.0140  -26.2162 H   0  0  0  0  0  0  0  0  0  0  0  0
   -9.7328    1.1543  -25.4020 H   0  0  0  0  0  0  0  0  0  0  0  0
   -9.1847   -2.5988  -25.8596 H   0  0  0  0  0  0  0  0  0  0  0  0
  -11.1335   -1.6996  -24.5408 H   0  0  0  0  0  0  0  0  0  0  0  0
  -10.0550   -0.5387  -23.7465 H   0  0  0  0  0  0  0  0  0  0  0  0
  -10.3492   -2.4318  -22.2821 H   0  0  0  0  0  0  0  0  0  0  0  0
   -9.9138   -3.5774  -23.5607 H   0  0  0  0  0  0  0  0  0  0  0  0
   -5.9475   -2.4880  -21.7131 H   0  0  0  0  0  0  0  0  0  0  0  0
   -6.8876   -3.1620  -20.4225 H   0  0  0  0  0  0  0  0  0  0  0  0
   -7.3030   -1.9600  -18.3764 H   0  0  0  0  0  0  0  0  0  0  0  0
   -4.6827    1.0089  -17.2193 H   0  0  0  0  0  0  0  0  0  0  0  0
   -3.1580    2.0905  -18.8284 H   0  0  0  0  0  0  0  0  0  0  0  0
   -2.3410    2.3558  -21.1493 H   0  0  0  0  0  0  0  0  0  0  0  0
   -3.2943    0.9579  -22.9638 H   0  0  0  0  0  0  0  0  0  0  0  0
   -5.0173   -0.7108  -22.4899 H   0  0  0  0  0  0  0  0  0  0  0  0
   -6.3731   -2.5014  -23.5504 H   0  0  0  0  0  0  0  0  0  0  0  0
   -7.5361   -3.5168  -24.4013 H   0  0  0  0  0  0  0  0  0  0  0  0
   -6.9203   -1.3879  -25.6602 H   0  0  0  0  0  0  0  0  0  0  0  0
   -7.6147   -0.4593  -24.3364 H   0  0  0  0  0  0  0  0  0  0  0  0
  1  2  1  0
  2  3  1  0
  2  4  1  0
  4  5  1  0
  5  6  1  0
  6  7  1  0
  7  8  1  0
  8  9  2  0
  8 10  1  0
 10 11  1  0
 11 12  2  0
 12 13  1  0
 13 14  2  0
 14 15  1  0
 15 16  2  0
 16 17  1  0
 17 18  2  0
 18 19  1  0
 19 20  2  0
  7 21  1  0
 21 22  1  0
 22  4  1  0
 20 11  1  0
 20 15  1  0
  1 23  1  0
  1 24  1  0
  1 25  1  0
  2 26  1  0
  3 27  1  0
  3 28  1  0
  3 29  1  0
  4 30  1  0
  5 31  1  0
  5 32  1  0
  6 33  1  0
  6 34  1  0
 10 35  1  0
 10 36  1  0
 12 37  1  0
 14 38  1  0
 16 39  1  0
 17 40  1  0
 18 41  1  0
 19 42  1  0
 21 43  1  0
 21 44  1  0
 22 45  1  0
 22 46  1  0
M  END
>  <RMSD>  (91) 
0.04245034601599454

$$$$

     RDKit          3D

 67 72  0  0  0  0  0  0  0  0999 V2000
   -6.7708    2.6164  -23.1815 C   0  0  0  0  0  0  0  0  0  0  0  0
   -7.3327    1.4230  -23.7877 N   0  0  0  0  0  0  0  0  0  0  0  0
   -6.8565    1.0165  -24.9887 C   0  0  0  0  0  0  0  0  0  0  0  0
   -6.0454    1.6620  -25.6403 O   0  0  0  0  0  0  0  0  0  0  0  0
   -7.3873   -0.3023  -25.5671 C   0  0  0  0  0  0  0  0  0  0  0  0
   -8.1847   -1.1220  -24.6816 N   0  0  0  0  0  0  0  0  0  0  0  0
   -7.5945   -2.3106  -24.0852 C   0  0  0  0  0  0  0  0  0  0  0  0
   -8.2339   -2.6416  -22.7078 C   0  0  2  0  0  0  0  0  0  0  0  0
   -7.8424   -1.5435  -21.6879 C   0  0  0  0  0  0  0  0  0  0  0  0
   -8.3346   -0.4368  -21.5650 O   0  0  0  0  0  0  0  0  0  0  0  0
   -6.7860   -2.0090  -20.9386 N   0  0  0  0  0  0  0  0  0  0  0  0
   -6.1516   -1.1758  -19.9850 C   0  0  0  0  0  0  0  0  0  0  0  0
   -6.5488   -1.2360  -18.6737 C   0  0  0  0  0  0  0  0  0  0  0  0
   -6.0261   -0.4825  -17.6734 N   0  0  0  0  0  0  0  0  0  0  0  0
   -5.0788    0.3642  -18.0074 C   0  0  0  0  0  0  0  0  0  0  0  0
   -4.5846    0.5408  -19.3322 C   0  0  0  0  0  0  0  0  0  0  0  0
   -3.5638    1.4822  -19.6314 C   0  0  0  0  0  0  0  0  0  0  0  0
   -3.1034    1.6185  -20.9114 C   0  0  0  0  0  0  0  0  0  0  0  0
   -3.6363    0.8290  -21.9557 C   0  0  0  0  0  0  0  0  0  0  0  0
   -4.6303   -0.0816  -21.6940 C   0  0  0  0  0  0  0  0  0  0  0  0
   -5.1323   -0.2506  -20.3695 C   0  0  0  0  0  0  0  0  0  0  0  0
   -6.3339   -3.3305  -21.3252 C   0  0  0  0  0  0  0  0  0  0  0  0
   -7.5768   -3.8743  -22.0392 C   0  0  2  0  0  0  0  0  0  0  0  0
   -7.2910   -5.0743  -22.9403 C   0  0  0  0  0  0  0  0  0  0  0  0
   -6.9121   -6.2447  -22.1847 N   0  0  0  0  0  0  0  0  0  0  0  0
   -5.6075   -6.4680  -21.8416 C   0  0  0  0  0  0  0  0  0  0  0  0
   -4.4860   -5.8643  -22.3380 C   0  0  0  0  0  0  0  0  0  0  0  0
   -3.2877   -6.3479  -21.8860 N   0  0  0  0  0  0  0  0  0  0  0  0
   -3.4511   -7.3229  -21.0499 C   0  0  0  0  0  0  0  0  0  0  0  0
   -2.2752   -8.0548  -20.4949 C   0  0  0  0  0  0  0  0  0  0  0  0
   -5.1269   -7.7210  -20.7199 S   0  0  0  0  0  0  0  0  0  0  0  0
   -9.7351   -2.7100  -22.9084 C   0  0  0  0  0  0  0  0  0  0  0  0
  -10.5683   -3.5815  -22.1927 C   0  0  0  0  0  0  0  0  0  0  0  0
  -11.9408   -3.5015  -22.3472 C   0  0  0  0  0  0  0  0  0  0  0  0
  -12.9594   -4.5789  -21.4398 Cl  0  0  0  0  0  0  0  0  0  0  0  0
  -12.5414   -2.5761  -23.1980 C   0  0  0  0  0  0  0  0  0  0  0  0
  -11.7290   -1.7292  -23.9191 C   0  0  0  0  0  0  0  0  0  0  0  0
  -10.3436   -1.8089  -23.7957 C   0  0  0  0  0  0  0  0  0  0  0  0
   -9.5359   -0.9048  -24.6698 C   0  0  0  0  0  0  0  0  0  0  0  0
  -10.0576   -0.0150  -25.3319 O   0  0  0  0  0  0  0  0  0  0  0  0
   -7.3026    2.8203  -22.2479 H   0  0  0  0  0  0  0  0  0  0  0  0
   -5.7059    2.4700  -22.9588 H   0  0  0  0  0  0  0  0  0  0  0  0
   -6.8707    3.4856  -23.8420 H   0  0  0  0  0  0  0  0  0  0  0  0
   -7.8502    0.7892  -23.1873 H   0  0  0  0  0  0  0  0  0  0  0  0
   -7.9810   -0.0518  -26.4548 H   0  0  0  0  0  0  0  0  0  0  0  0
   -6.5145   -0.8641  -25.9158 H   0  0  0  0  0  0  0  0  0  0  0  0
   -7.7329   -3.1685  -24.7578 H   0  0  0  0  0  0  0  0  0  0  0  0
   -6.5173   -2.1341  -23.9747 H   0  0  0  0  0  0  0  0  0  0  0  0
   -7.3441   -1.9266  -18.3997 H   0  0  0  0  0  0  0  0  0  0  0  0
   -4.6396    0.9648  -17.2113 H   0  0  0  0  0  0  0  0  0  0  0  0
   -3.1585    2.0861  -18.8228 H   0  0  0  0  0  0  0  0  0  0  0  0
   -2.3183    2.3323  -21.1395 H   0  0  0  0  0  0  0  0  0  0  0  0
   -3.2695    0.9573  -22.9728 H   0  0  0  0  0  0  0  0  0  0  0  0
   -5.0316   -0.6752  -22.5118 H   0  0  0  0  0  0  0  0  0  0  0  0
   -6.0542   -3.9392  -20.4607 H   0  0  0  0  0  0  0  0  0  0  0  0
   -5.4538   -3.2901  -21.9914 H   0  0  0  0  0  0  0  0  0  0  0  0
   -8.2439   -4.1888  -21.2297 H   0  0  0  0  0  0  0  0  0  0  0  0
   -8.1664   -5.3033  -23.5586 H   0  0  0  0  0  0  0  0  0  0  0  0
   -6.4661   -4.8386  -23.6226 H   0  0  0  0  0  0  0  0  0  0  0  0
   -7.6299   -6.7742  -21.7116 H   0  0  0  0  0  0  0  0  0  0  0  0
   -4.4859   -5.0733  -23.0774 H   0  0  0  0  0  0  0  0  0  0  0  0
   -1.9746   -8.8701  -21.1680 H   0  0  0  0  0  0  0  0  0  0  0  0
   -2.4659   -8.4486  -19.4946 H   0  0  0  0  0  0  0  0  0  0  0  0
   -1.4380   -7.3562  -20.4712 H   0  0  0  0  0  0  0  0  0  0  0  0
  -10.1794   -4.3360  -21.5169 H   0  0  0  0  0  0  0  0  0  0  0  0
  -13.6203   -2.5296  -23.2899 H   0  0  0  0  0  0  0  0  0  0  0  0
  -12.1441   -0.9931  -24.5978 H   0  0  0  0  0  0  0  0  0  0  0  0
  1  2  1  0
  2  3  1  0
  3  4  2  0
  3  5  1  0
  5  6  1  0
  6  7  1  0
  8  7  1  6
  8  9  1  0
  9 10  2  0
  9 11  1  0
 11 12  1  0
 12 13  2  0
 13 14  1  0
 14 15  2  0
 15 16  1  0
 16 17  2  0
 17 18  1  0
 18 19  2  0
 19 20  1  0
 20 21  2  0
 11 22  1  0
 22 23  1  0
 23 24  1  0
 24 25  1  0
 25 26  1  0
 26 27  2  0
 27 28  1  0
 28 29  2  0
 29 30  1  0
 29 31  1  0
  8 32  1  0
 32 33  2  0
 33 34  1  0
 34 35  1  0
 34 36  2  0
 36 37  1  0
 37 38  2  0
 38 39  1  0
 39 40  2  0
 39  6  1  0
 23  8  1  0
 31 26  1  0
 38 32  1  0
 21 12  1  0
 21 16  1  0
  1 41  1  0
  1 42  1  0
  1 43  1  0
  2 44  1  0
  5 45  1  0
  5 46  1  0
  7 47  1  0
  7 48  1  0
 13 49  1  0
 15 50  1  0
 17 51  1  0
 18 52  1  0
 19 53  1  0
 20 54  1  0
 22 55  1  0
 22 56  1  0
 23 57  1  1
 24 58  1  0
 24 59  1  0
 25 60  1  0
 27 61  1  0
 30 62  1  0
 30 63  1  0
 30 64  1  0
 33 65  1  0
 36 66  1  0
 37 67  1  0
M  END
>  <RMSD>  (92) 
0.06714476274597858

$$$$

     RDKit          3D

 60 65  0  0  0  0  0  0  0  0999 V2000
   -6.7689    2.6268  -23.1995 C   0  0  0  0  0  0  0  0  0  0  0  0
   -7.3394    1.4478  -23.8245 N   0  0  0  0  0  0  0  0  0  0  0  0
   -6.8483    1.0272  -25.0138 C   0  0  0  0  0  0  0  0  0  0  0  0
   -6.0279    1.6588  -25.6643 O   0  0  0  0  0  0  0  0  0  0  0  0
   -7.3662   -0.3002  -25.5769 C   0  0  0  0  0  0  0  0  0  0  0  0
   -8.1765   -1.1108  -24.6995 N   0  0  0  0  0  0  0  0  0  0  0  0
   -7.5862   -2.2910  -24.1008 C   0  0  0  0  0  0  0  0  0  0  0  0
   -8.2108   -2.6357  -22.7270 C   0  0  2  0  0  0  0  0  0  0  0  0
   -7.8433   -1.5446  -21.6940 C   0  0  0  0  0  0  0  0  0  0  0  0
   -8.3609   -0.4521  -21.5581 O   0  0  0  0  0  0  0  0  0  0  0  0
   -6.7854   -1.9981  -20.9418 N   0  0  0  0  0  0  0  0  0  0  0  0
   -6.1549   -1.1669  -19.9873 C   0  0  0  0  0  0  0  0  0  0  0  0
   -6.5468   -1.2396  -18.6759 C   0  0  0  0  0  0  0  0  0  0  0  0
   -6.0280   -0.4862  -17.6730 N   0  0  0  0  0  0  0  0  0  0  0  0
   -5.0827    0.3660  -18.0026 C   0  0  0  0  0  0  0  0  0  0  0  0
   -4.5866    0.5417  -19.3291 C   0  0  0  0  0  0  0  0  0  0  0  0
   -3.5658    1.4801  -19.6338 C   0  0  0  0  0  0  0  0  0  0  0  0
   -3.1031    1.6173  -20.9134 C   0  0  0  0  0  0  0  0  0  0  0  0
   -3.6342    0.8264  -21.9545 C   0  0  0  0  0  0  0  0  0  0  0  0
   -4.6302   -0.0809  -21.6920 C   0  0  0  0  0  0  0  0  0  0  0  0
   -5.1321   -0.2460  -20.3669 C   0  0  0  0  0  0  0  0  0  0  0  0
   -6.3183   -3.3137  -21.3152 C   0  0  0  0  0  0  0  0  0  0  0  0
   -7.5039   -3.8763  -22.1123 C   0  0  2  0  0  0  0  0  0  0  0  0
   -7.0824   -4.9912  -23.0773 C   0  0  0  0  0  0  0  0  0  0  0  0
   -6.4828   -6.1438  -22.3498 C   0  0  0  0  0  0  0  0  0  0  0  0
   -5.2491   -6.2009  -21.8632 N   0  0  0  0  0  0  0  0  0  0  0  0
   -5.1713   -7.3888  -21.2724 N   0  0  0  0  0  0  0  0  0  0  0  0
   -6.3129   -8.0121  -21.4042 N   0  0  0  0  0  0  0  0  0  0  0  0
   -7.1571   -7.2459  -22.0788 N   0  0  0  0  0  0  0  0  0  0  0  0
   -9.7135   -2.7162  -22.9302 C   0  0  0  0  0  0  0  0  0  0  0  0
  -10.5506   -3.5849  -22.2172 C   0  0  0  0  0  0  0  0  0  0  0  0
  -11.9254   -3.5055  -22.3708 C   0  0  0  0  0  0  0  0  0  0  0  0
  -12.9413   -4.5820  -21.4526 Cl  0  0  0  0  0  0  0  0  0  0  0  0
  -12.5281   -2.5820  -23.2217 C   0  0  0  0  0  0  0  0  0  0  0  0
  -11.7126   -1.7338  -23.9390 C   0  0  0  0  0  0  0  0  0  0  0  0
  -10.3259   -1.8110  -23.8129 C   0  0  0  0  0  0  0  0  0  0  0  0
   -9.5262   -0.8897  -24.6755 C   0  0  0  0  0  0  0  0  0  0  0  0
  -10.0565    0.0158  -25.3097 O   0  0  0  0  0  0  0  0  0  0  0  0
   -6.8688    3.5078  -23.8438 H   0  0  0  0  0  0  0  0  0  0  0  0
   -5.7025    2.4774  -22.9785 H   0  0  0  0  0  0  0  0  0  0  0  0
   -7.2984    2.8179  -22.2619 H   0  0  0  0  0  0  0  0  0  0  0  0
   -7.9093    0.8394  -23.2419 H   0  0  0  0  0  0  0  0  0  0  0  0
   -6.4848   -0.8662  -25.8954 H   0  0  0  0  0  0  0  0  0  0  0  0
   -7.9427   -0.0690  -26.4762 H   0  0  0  0  0  0  0  0  0  0  0  0
   -7.7292   -3.1600  -24.7568 H   0  0  0  0  0  0  0  0  0  0  0  0
   -6.5090   -2.1245  -23.9777 H   0  0  0  0  0  0  0  0  0  0  0  0
   -7.3413   -1.9319  -18.4023 H   0  0  0  0  0  0  0  0  0  0  0  0
   -4.6343    0.9640  -17.2077 H   0  0  0  0  0  0  0  0  0  0  0  0
   -3.1600    2.0835  -18.8290 H   0  0  0  0  0  0  0  0  0  0  0  0
   -2.3226    2.3352  -21.1448 H   0  0  0  0  0  0  0  0  0  0  0  0
   -3.2691    0.9554  -22.9707 H   0  0  0  0  0  0  0  0  0  0  0  0
   -5.0263   -0.6823  -22.5052 H   0  0  0  0  0  0  0  0  0  0  0  0
   -6.0777   -3.9373  -20.4482 H   0  0  0  0  0  0  0  0  0  0  0  0
   -5.4150   -3.2640  -21.9433 H   0  0  0  0  0  0  0  0  0  0  0  0
   -8.1811   -4.3299  -21.3876 H   0  0  0  0  0  0  0  0  0  0  0  0
   -6.3744   -4.6056  -23.8127 H   0  0  0  0  0  0  0  0  0  0  0  0
   -7.9377   -5.3994  -23.6148 H   0  0  0  0  0  0  0  0  0  0  0  0
  -10.1664   -4.3338  -21.5337 H   0  0  0  0  0  0  0  0  0  0  0  0
  -13.6105   -2.5488  -23.3076 H   0  0  0  0  0  0  0  0  0  0  0  0
  -12.1381   -1.0048  -24.6190 H   0  0  0  0  0  0  0  0  0  0  0  0
  1  2  1  0
  2  3  1  0
  3  4  2  0
  3  5  1  0
  5  6  1  0
  6  7  1  0
  8  7  1  6
  8  9  1  0
  9 10  2  0
  9 11  1  0
 11 12  1  0
 12 13  2  0
 13 14  1  0
 14 15  2  0
 15 16  1  0
 16 17  2  0
 17 18  1  0
 18 19  2  0
 19 20  1  0
 20 21  2  0
 11 22  1  0
 22 23  1  0
 23 24  1  0
 24 25  1  0
 25 26  1  0
 26 27  2  0
 27 28  1  0
 28 29  1  0
  8 30  1  0
 30 31  2  0
 31 32  1  0
 32 33  1  0
 32 34  2  0
 34 35  1  0
 35 36  2  0
 36 37  1  0
 37 38  2  0
 37  6  1  0
 23  8  1  0
 29 25  2  0
 36 30  1  0
 21 12  1  0
 21 16  1  0
  1 39  1  0
  1 40  1  0
  1 41  1  0
  2 42  1  0
  5 43  1  0
  5 44  1  0
  7 45  1  0
  7 46  1  0
 13 47  1  0
 15 48  1  0
 17 49  1  0
 18 50  1  0
 19 51  1  0
 20 52  1  0
 22 53  1  0
 22 54  1  0
 23 55  1  1
 24 56  1  0
 24 57  1  0
 31 58  1  0
 34 59  1  0
 35 60  1  0
M  CHG  1  28  -1
M  END
>  <RMSD>  (93) 
0.06434607347116045

$$$$

     RDKit          3D

 66 70  0  0  0  0  0  0  0  0999 V2000
   -6.7627    2.6526  -23.2209 C   0  0  0  0  0  0  0  0  0  0  0  0
   -7.3112    1.4751  -23.8585 N   0  0  0  0  0  0  0  0  0  0  0  0
   -6.8325    1.0654  -25.0528 C   0  0  0  0  0  0  0  0  0  0  0  0
   -6.0162    1.6984  -25.7054 O   0  0  0  0  0  0  0  0  0  0  0  0
   -7.3279   -0.2857  -25.5808 C   0  0  0  0  0  0  0  0  0  0  0  0
   -8.1470   -1.0808  -24.6881 N   0  0  0  0  0  0  0  0  0  0  0  0
   -7.5828   -2.2900  -24.1202 C   0  0  0  0  0  0  0  0  0  0  0  0
   -8.2306   -2.6356  -22.7540 C   0  0  2  0  0  0  0  0  0  0  0  0
   -7.8766   -1.5342  -21.7259 C   0  0  0  0  0  0  0  0  0  0  0  0
   -8.4083   -0.4494  -21.5928 O   0  0  0  0  0  0  0  0  0  0  0  0
   -6.8123   -1.9812  -20.9715 N   0  0  0  0  0  0  0  0  0  0  0  0
   -6.1756   -1.1563  -20.0041 C   0  0  0  0  0  0  0  0  0  0  0  0
   -6.5467   -1.2432  -18.6873 C   0  0  0  0  0  0  0  0  0  0  0  0
   -6.0147   -0.5008  -17.6825 N   0  0  0  0  0  0  0  0  0  0  0  0
   -5.0748    0.3596  -18.0000 C   0  0  0  0  0  0  0  0  0  0  0  0
   -4.5718    0.5407  -19.3216 C   0  0  0  0  0  0  0  0  0  0  0  0
   -3.5538    1.4878  -19.6297 C   0  0  0  0  0  0  0  0  0  0  0  0
   -3.0985    1.6213  -20.9139 C   0  0  0  0  0  0  0  0  0  0  0  0
   -3.6272    0.8176  -21.9512 C   0  0  0  0  0  0  0  0  0  0  0  0
   -4.6207   -0.0908  -21.6824 C   0  0  0  0  0  0  0  0  0  0  0  0
   -5.1273   -0.2483  -20.3615 C   0  0  0  0  0  0  0  0  0  0  0  0
   -6.3475   -3.3045  -21.3515 C   0  0  0  0  0  0  0  0  0  0  0  0
   -7.5633   -3.8712  -22.1017 C   0  0  2  0  0  0  0  0  0  0  0  0
   -7.2631   -5.0433  -23.0333 C   0  0  0  0  0  0  0  0  0  0  0  0
   -6.9212   -6.1904  -22.2903 O   0  0  0  0  0  0  0  0  0  0  0  0
   -5.5449   -6.5383  -22.2904 C   0  0  0  0  0  0  0  0  0  0  0  0
   -5.2430   -7.2298  -20.9743 C   0  0  0  0  0  0  0  0  0  0  0  0
   -5.2175   -7.4230  -23.4838 C   0  0  0  0  0  0  0  0  0  0  0  0
   -9.7235   -2.7150  -22.9762 C   0  0  0  0  0  0  0  0  0  0  0  0
  -10.5467   -3.5947  -22.2634 C   0  0  0  0  0  0  0  0  0  0  0  0
  -11.9158   -3.5070  -22.4149 C   0  0  0  0  0  0  0  0  0  0  0  0
  -12.6913   -4.3392  -21.6988 F   0  0  0  0  0  0  0  0  0  0  0  0
  -12.5280   -2.5837  -23.2589 C   0  0  0  0  0  0  0  0  0  0  0  0
  -11.7119   -1.7303  -23.9784 C   0  0  0  0  0  0  0  0  0  0  0  0
  -10.3229   -1.7922  -23.8505 C   0  0  0  0  0  0  0  0  0  0  0  0
   -9.4928   -0.8366  -24.6601 C   0  0  0  0  0  0  0  0  0  0  0  0
   -9.9749    0.1232  -25.2454 O   0  0  0  0  0  0  0  0  0  0  0  0
   -7.2926    2.8069  -22.2784 H   0  0  0  0  0  0  0  0  0  0  0  0
   -6.8670    3.5431  -23.8492 H   0  0  0  0  0  0  0  0  0  0  0  0
   -5.6991    2.5099  -22.9991 H   0  0  0  0  0  0  0  0  0  0  0  0
   -8.1048    1.0228  -23.4285 H   0  0  0  0  0  0  0  0  0  0  0  0
   -7.8644   -0.1089  -26.5193 H   0  0  0  0  0  0  0  0  0  0  0  0
   -6.4310   -0.8600  -25.8360 H   0  0  0  0  0  0  0  0  0  0  0  0
   -7.7182   -3.1287  -24.8200 H   0  0  0  0  0  0  0  0  0  0  0  0
   -6.5072   -2.1327  -23.9842 H   0  0  0  0  0  0  0  0  0  0  0  0
   -7.3307   -1.9367  -18.3905 H   0  0  0  0  0  0  0  0  0  0  0  0
   -4.6566    0.9651  -17.1926 H   0  0  0  0  0  0  0  0  0  0  0  0
   -3.1541    2.1093  -18.8297 H   0  0  0  0  0  0  0  0  0  0  0  0
   -2.3302    2.3512  -21.1556 H   0  0  0  0  0  0  0  0  0  0  0  0
   -3.2750    0.9425  -22.9734 H   0  0  0  0  0  0  0  0  0  0  0  0
   -5.0339   -0.7000  -22.4826 H   0  0  0  0  0  0  0  0  0  0  0  0
   -5.4566   -3.2737  -22.0052 H   0  0  0  0  0  0  0  0  0  0  0  0
   -6.0806   -3.8870  -20.4652 H   0  0  0  0  0  0  0  0  0  0  0  0
   -8.2290   -4.2577  -21.3301 H   0  0  0  0  0  0  0  0  0  0  0  0
   -6.4543   -4.7677  -23.7288 H   0  0  0  0  0  0  0  0  0  0  0  0
   -8.1515   -5.2755  -23.6412 H   0  0  0  0  0  0  0  0  0  0  0  0
   -4.9456   -5.6188  -22.3482 H   0  0  0  0  0  0  0  0  0  0  0  0
   -5.4863   -6.5789  -20.1288 H   0  0  0  0  0  0  0  0  0  0  0  0
   -4.1788   -7.4856  -20.9173 H   0  0  0  0  0  0  0  0  0  0  0  0
   -5.8241   -8.1523  -20.8778 H   0  0  0  0  0  0  0  0  0  0  0  0
   -5.4310   -6.9159  -24.4292 H   0  0  0  0  0  0  0  0  0  0  0  0
   -4.1590   -7.7027  -23.4746 H   0  0  0  0  0  0  0  0  0  0  0  0
   -5.8209   -8.3344  -23.4459 H   0  0  0  0  0  0  0  0  0  0  0  0
  -10.1447   -4.3482  -21.5922 H   0  0  0  0  0  0  0  0  0  0  0  0
  -13.6130   -2.5466  -23.3263 H   0  0  0  0  0  0  0  0  0  0  0  0
  -12.1439   -1.0016  -24.6548 H   0  0  0  0  0  0  0  0  0  0  0  0
  1  2  1  0
  2  3  1  0
  3  4  2  0
  3  5  1  0
  5  6  1  0
  6  7  1  0
  8  7  1  6
  8  9  1  0
  9 10  2  0
  9 11  1  0
 11 12  1  0
 12 13  2  0
 13 14  1  0
 14 15  2  0
 15 16  1  0
 16 17  2  0
 17 18  1  0
 18 19  2  0
 19 20  1  0
 20 21  2  0
 11 22  1  0
 22 23  1  0
 23 24  1  0
 24 25  1  0
 25 26  1  0
 26 27  1  0
 26 28  1  0
  8 29  1  0
 29 30  2  0
 30 31  1  0
 31 32  1  0
 31 33  2  0
 33 34  1  0
 34 35  2  0
 35 36  1  0
 36 37  2  0
 36  6  1  0
 23  8  1  0
 35 29  1  0
 21 12  1  0
 21 16  1  0
  1 38  1  0
  1 39  1  0
  1 40  1  0
  2 41  1  0
  5 42  1  0
  5 43  1  0
  7 44  1  0
  7 45  1  0
 13 46  1  0
 15 47  1  0
 17 48  1  0
 18 49  1  0
 19 50  1  0
 20 51  1  0
 22 52  1  0
 22 53  1  0
 23 54  1  1
 24 55  1  0
 24 56  1  0
 26 57  1  0
 27 58  1  0
 27 59  1  0
 27 60  1  0
 28 61  1  0
 28 62  1  0
 28 63  1  0
 30 64  1  0
 33 65  1  0
 34 66  1  0
M  END
>  <RMSD>  (94) 
0.05669430302388302

$$$$

     RDKit          3D

 62 67  0  0  0  0  0  0  0  0999 V2000
   -8.7049    2.3468  -27.8055 C   0  0  0  0  0  0  0  0  0  0  0  0
   -7.2445    2.2638  -27.3845 C   0  0  0  0  0  0  0  0  0  0  0  0
   -7.0550    2.2213  -25.9405 N   0  0  0  0  0  0  0  0  0  0  0  0
   -6.8578    3.3541  -25.2451 N   0  0  0  0  0  0  0  0  0  0  0  0
   -6.7714    2.9660  -23.9769 C   0  0  0  0  0  0  0  0  0  0  0  0
   -6.9405    1.5781  -23.8439 C   0  0  0  0  0  0  0  0  0  0  0  0
   -7.1437    1.1349  -25.1294 C   0  0  0  0  0  0  0  0  0  0  0  0
   -7.3334   -0.2749  -25.5977 C   0  0  0  0  0  0  0  0  0  0  0  0
   -8.1393   -1.0602  -24.6743 N   0  0  0  0  0  0  0  0  0  0  0  0
   -7.5856   -2.2828  -24.1185 C   0  0  0  0  0  0  0  0  0  0  0  0
   -8.2338   -2.6344  -22.7548 C   0  0  2  0  0  0  0  0  0  0  0  0
   -7.8810   -1.5347  -21.7209 C   0  0  0  0  0  0  0  0  0  0  0  0
   -8.4164   -0.4570  -21.5743 O   0  0  0  0  0  0  0  0  0  0  0  0
   -6.8132   -1.9785  -20.9710 N   0  0  0  0  0  0  0  0  0  0  0  0
   -6.1765   -1.1544  -20.0031 C   0  0  0  0  0  0  0  0  0  0  0  0
   -6.5487   -1.2410  -18.6866 C   0  0  0  0  0  0  0  0  0  0  0  0
   -6.0146   -0.4997  -17.6825 N   0  0  0  0  0  0  0  0  0  0  0  0
   -5.0741    0.3591  -18.0011 C   0  0  0  0  0  0  0  0  0  0  0  0
   -4.5710    0.5391  -19.3230 C   0  0  0  0  0  0  0  0  0  0  0  0
   -3.5532    1.4860  -19.6317 C   0  0  0  0  0  0  0  0  0  0  0  0
   -3.1031    1.6256  -20.9159 C   0  0  0  0  0  0  0  0  0  0  0  0
   -3.6380    0.8286  -21.9542 C   0  0  0  0  0  0  0  0  0  0  0  0
   -4.6174   -0.0956  -21.6798 C   0  0  0  0  0  0  0  0  0  0  0  0
   -5.1230   -0.2526  -20.3602 C   0  0  0  0  0  0  0  0  0  0  0  0
   -6.3516   -3.2996  -21.3539 C   0  0  0  0  0  0  0  0  0  0  0  0
   -7.5627   -3.8730  -22.1021 C   0  0  2  0  0  0  0  0  0  0  0  0
   -7.2354   -5.0309  -23.0350 C   0  0  0  0  0  0  0  0  0  0  0  0
   -9.7291   -2.7038  -22.9776 C   0  0  0  0  0  0  0  0  0  0  0  0
  -10.5545   -3.5810  -22.2665 C   0  0  0  0  0  0  0  0  0  0  0  0
  -11.9234   -3.4931  -22.4168 C   0  0  0  0  0  0  0  0  0  0  0  0
  -12.6984   -4.3262  -21.7013 F   0  0  0  0  0  0  0  0  0  0  0  0
  -12.5327   -2.5680  -23.2602 C   0  0  0  0  0  0  0  0  0  0  0  0
  -11.7154   -1.7140  -23.9773 C   0  0  0  0  0  0  0  0  0  0  0  0
  -10.3248   -1.7730  -23.8461 C   0  0  0  0  0  0  0  0  0  0  0  0
   -9.4855   -0.8158  -24.6493 C   0  0  0  0  0  0  0  0  0  0  0  0
   -9.9823    0.1172  -25.2628 O   0  0  0  0  0  0  0  0  0  0  0  0
   -9.1594    3.2410  -27.3774 H   0  0  0  0  0  0  0  0  0  0  0  0
   -9.2682    1.4738  -27.4609 H   0  0  0  0  0  0  0  0  0  0  0  0
   -8.7866    2.4130  -28.8959 H   0  0  0  0  0  0  0  0  0  0  0  0
   -6.6838    3.1233  -27.7493 H   0  0  0  0  0  0  0  0  0  0  0  0
   -6.7775    1.3787  -27.8200 H   0  0  0  0  0  0  0  0  0  0  0  0
   -6.5870    3.6878  -23.1935 H   0  0  0  0  0  0  0  0  0  0  0  0
   -6.9301    0.9658  -22.9482 H   0  0  0  0  0  0  0  0  0  0  0  0
   -7.7729   -0.3139  -26.6053 H   0  0  0  0  0  0  0  0  0  0  0  0
   -6.3485   -0.7548  -25.6496 H   0  0  0  0  0  0  0  0  0  0  0  0
   -7.7287   -3.1187  -24.8210 H   0  0  0  0  0  0  0  0  0  0  0  0
   -6.5096   -2.1357  -23.9798 H   0  0  0  0  0  0  0  0  0  0  0  0
   -7.3329   -1.9355  -18.3933 H   0  0  0  0  0  0  0  0  0  0  0  0
   -4.6546    0.9632  -17.1936 H   0  0  0  0  0  0  0  0  0  0  0  0
   -3.1523    2.1063  -18.8307 H   0  0  0  0  0  0  0  0  0  0  0  0
   -2.3295    2.3525  -21.1528 H   0  0  0  0  0  0  0  0  0  0  0  0
   -3.2730    0.9412  -22.9711 H   0  0  0  0  0  0  0  0  0  0  0  0
   -5.0285   -0.7065  -22.4795 H   0  0  0  0  0  0  0  0  0  0  0  0
   -6.0900   -3.8823  -20.4683 H   0  0  0  0  0  0  0  0  0  0  0  0
   -5.4662   -3.2736  -22.0126 H   0  0  0  0  0  0  0  0  0  0  0  0
   -8.2394   -4.2394  -21.3266 H   0  0  0  0  0  0  0  0  0  0  0  0
   -6.8801   -5.9040  -22.4790 H   0  0  0  0  0  0  0  0  0  0  0  0
   -8.1099   -5.3385  -23.6177 H   0  0  0  0  0  0  0  0  0  0  0  0
   -6.4547   -4.7541  -23.7501 H   0  0  0  0  0  0  0  0  0  0  0  0
  -10.1524   -4.3339  -21.5958 H   0  0  0  0  0  0  0  0  0  0  0  0
  -13.6179   -2.5303  -23.3263 H   0  0  0  0  0  0  0  0  0  0  0  0
  -12.1505   -0.9850  -24.6517 H   0  0  0  0  0  0  0  0  0  0  0  0
  1  2  1  0
  2  3  1  0
  3  4  1  0
  4  5  2  0
  5  6  1  0
  6  7  2  0
  7  8  1  0
  8  9  1  0
  9 10  1  0
 11 10  1  6
 11 12  1  0
 12 13  2  0
 12 14  1  0
 14 15  1  0
 15 16  2  0
 16 17  1  0
 17 18  2  0
 18 19  1  0
 19 20  2  0
 20 21  1  0
 21 22  2  0
 22 23  1  0
 23 24  2  0
 14 25  1  0
 25 26  1  0
 26 27  1  0
 11 28  1  0
 28 29  2  0
 29 30  1  0
 30 31  1  0
 30 32  2  0
 32 33  1  0
 33 34  2  0
 34 35  1  0
 35 36  2  0
  7  3  1  0
 35  9  1  0
 26 11  1  0
 34 28  1  0
 24 15  1  0
 24 19  1  0
  1 37  1  0
  1 38  1  0
  1 39  1  0
  2 40  1  0
  2 41  1  0
  5 42  1  0
  6 43  1  0
  8 44  1  0
  8 45  1  0
 10 46  1  0
 10 47  1  0
 16 48  1  0
 18 49  1  0
 20 50  1  0
 21 51  1  0
 22 52  1  0
 23 53  1  0
 25 54  1  0
 25 55  1  0
 26 56  1  1
 27 57  1  0
 27 58  1  0
 27 59  1  0
 29 60  1  0
 32 61  1  0
 33 62  1  0
M  END
>  <RMSD>  (95) 
0.05714154445067804

$$$$

     RDKit          3D

 50 52  0  0  0  0  0  0  0  0999 V2000
   -6.5853    0.0107  -24.4444 C   0  0  0  0  0  0  0  0  0  0  0  0
   -6.4316   -1.3055  -24.6144 C   0  0  0  0  0  0  0  0  0  0  0  0
   -7.0875   -2.4567  -23.8420 C   0  0  0  0  0  0  0  0  0  0  0  0
   -8.1321   -2.1042  -22.8888 N   0  0  0  0  0  0  0  0  0  0  0  0
   -7.7917   -1.3848  -21.7407 C   0  0  0  0  0  0  0  0  0  0  0  0
   -8.3564   -0.3709  -21.3907 O   0  0  0  0  0  0  0  0  0  0  0  0
   -6.7097   -1.9499  -21.0457 N   0  0  0  0  0  0  0  0  0  0  0  0
   -6.1291   -1.1799  -20.0031 C   0  0  0  0  0  0  0  0  0  0  0  0
   -6.5231   -1.2656  -18.6920 C   0  0  0  0  0  0  0  0  0  0  0  0
   -6.0095   -0.4990  -17.6976 N   0  0  0  0  0  0  0  0  0  0  0  0
   -5.0832    0.3724  -18.0075 C   0  0  0  0  0  0  0  0  0  0  0  0
   -4.5669    0.5474  -19.3202 C   0  0  0  0  0  0  0  0  0  0  0  0
   -3.5597    1.4980  -19.6312 C   0  0  0  0  0  0  0  0  0  0  0  0
   -3.1048    1.6217  -20.9164 C   0  0  0  0  0  0  0  0  0  0  0  0
   -3.6391    0.8123  -21.9467 C   0  0  0  0  0  0  0  0  0  0  0  0
   -4.6063   -0.1188  -21.6647 C   0  0  0  0  0  0  0  0  0  0  0  0
   -5.1048   -0.2532  -20.3459 C   0  0  0  0  0  0  0  0  0  0  0  0
   -9.4851   -2.0035  -23.3403 C   0  0  0  0  0  0  0  0  0  0  0  0
   -9.8448   -1.2029  -24.4229 C   0  0  0  0  0  0  0  0  0  0  0  0
  -11.1876   -1.0652  -24.7780 C   0  0  0  0  0  0  0  0  0  0  0  0
  -12.1761   -1.7800  -24.1119 C   0  0  0  0  0  0  0  0  0  0  0  0
  -11.7989   -2.6150  -23.0686 C   0  0  0  0  0  0  0  0  0  0  0  0
  -13.0251   -3.5597  -22.2705 Cl  0  0  0  0  0  0  0  0  0  0  0  0
  -10.4757   -2.7143  -22.6579 C   0  0  0  0  0  0  0  0  0  0  0  0
   -5.4070   -1.7089  -25.6515 C   0  0  0  0  0  0  0  0  0  0  0  0
   -4.4523   -0.9938  -25.9202 O   0  0  0  0  0  0  0  0  0  0  0  0
   -5.5949   -2.9007  -26.2779 N   0  0  0  0  0  0  0  0  0  0  0  0
   -4.4828   -3.5210  -26.9753 C   0  0  0  0  0  0  0  0  0  0  0  0
   -4.8808   -4.8558  -27.5854 C   0  0  0  0  0  0  0  0  0  0  0  0
   -6.0509    0.7134  -25.0855 H   0  0  0  0  0  0  0  0  0  0  0  0
   -7.1938    0.4277  -23.6419 H   0  0  0  0  0  0  0  0  0  0  0  0
   -7.5438   -3.1562  -24.5457 H   0  0  0  0  0  0  0  0  0  0  0  0
   -6.3110   -3.0181  -23.3015 H   0  0  0  0  0  0  0  0  0  0  0  0
   -6.7920   -2.9511  -20.8957 H   0  0  0  0  0  0  0  0  0  0  0  0
   -7.2942   -1.9723  -18.3882 H   0  0  0  0  0  0  0  0  0  0  0  0
   -4.6842    0.9793  -17.1961 H   0  0  0  0  0  0  0  0  0  0  0  0
   -3.1624    2.1119  -18.8268 H   0  0  0  0  0  0  0  0  0  0  0  0
   -2.3278    2.3417  -21.1581 H   0  0  0  0  0  0  0  0  0  0  0  0
   -3.3041    0.9411  -22.9718 H   0  0  0  0  0  0  0  0  0  0  0  0
   -5.0177   -0.7553  -22.4411 H   0  0  0  0  0  0  0  0  0  0  0  0
   -9.0551   -0.6926  -24.9644 H   0  0  0  0  0  0  0  0  0  0  0  0
  -11.4790   -0.4000  -25.5848 H   0  0  0  0  0  0  0  0  0  0  0  0
  -13.2244   -1.6847  -24.3832 H   0  0  0  0  0  0  0  0  0  0  0  0
  -10.2192   -3.3493  -21.8164 H   0  0  0  0  0  0  0  0  0  0  0  0
   -6.4754   -3.3834  -26.2035 H   0  0  0  0  0  0  0  0  0  0  0  0
   -3.6534   -3.6472  -26.2691 H   0  0  0  0  0  0  0  0  0  0  0  0
   -4.1162   -2.8304  -27.7375 H   0  0  0  0  0  0  0  0  0  0  0  0
   -4.0009   -5.4226  -27.9072 H   0  0  0  0  0  0  0  0  0  0  0  0
   -5.4090   -5.4681  -26.8475 H   0  0  0  0  0  0  0  0  0  0  0  0
   -5.5292   -4.7303  -28.4591 H   0  0  0  0  0  0  0  0  0  0  0  0
  1  2  2  0
  2  3  1  0
  3  4  1  0
  4  5  1  0
  5  6  2  0
  5  7  1  0
  7  8  1  0
  8  9  2  0
  9 10  1  0
 10 11  2  0
 11 12  1  0
 12 13  2  0
 13 14  1  0
 14 15  2  0
 15 16  1  0
 16 17  2  0
  4 18  1  0
 18 19  2  0
 19 20  1  0
 20 21  2  0
 21 22  1  0
 22 23  1  0
 22 24  2  0
  2 25  1  0
 25 26  2  0
 25 27  1  0
 27 28  1  0
 28 29  1  0
 17  8  1  0
 24 18  1  0
 17 12  1  0
  1 30  1  0
  1 31  1  0
  3 32  1  0
  3 33  1  0
  7 34  1  0
  9 35  1  0
 11 36  1  0
 13 37  1  0
 14 38  1  0
 15 39  1  0
 16 40  1  0
 19 41  1  0
 20 42  1  0
 21 43  1  0
 24 44  1  0
 27 45  1  0
 28 46  1  0
 28 47  1  0
 29 48  1  0
 29 49  1  0
 29 50  1  0
M  END
>  <RMSD>  (96) 
0.037541363137982245

$$$$

     RDKit          3D

 56 60  0  0  0  0  0  0  0  0999 V2000
    6.1133    4.2697   22.3558 C   0  0  0  0  0  0  0  0  0  0  0  0
    6.7091    3.2586   23.2002 N   0  0  0  0  0  0  0  0  0  0  0  0
    6.2145    3.0261   24.4345 C   0  0  0  0  0  0  0  0  0  0  0  0
    5.3364    3.7048   24.9479 O   0  0  0  0  0  0  0  0  0  0  0  0
    6.7723    1.8212   25.2002 C   0  0  0  0  0  0  0  0  0  0  0  0
    7.6698    0.9421   24.4795 N   0  0  0  0  0  0  0  0  0  0  0  0
    7.2024   -0.3829   24.1158 C   0  0  0  0  0  0  0  0  0  0  0  0
    7.9206   -0.9117   22.8472 C   0  0  2  0  0  0  0  0  0  0  0  0
    7.5392   -0.0281   21.6335 C   0  0  0  0  0  0  0  0  0  0  0  0
    8.0070    1.0517   21.3286 O   0  0  0  0  0  0  0  0  0  0  0  0
    6.5319   -0.6641   20.9393 N   0  0  0  0  0  0  0  0  0  0  0  0
    5.8834   -0.0576   19.8297 C   0  0  0  0  0  0  0  0  0  0  0  0
    6.3056   -0.3463   18.5577 C   0  0  0  0  0  0  0  0  0  0  0  0
    5.7657    0.1753   17.4270 N   0  0  0  0  0  0  0  0  0  0  0  0
    4.7631    1.0128   17.5668 C   0  0  0  0  0  0  0  0  0  0  0  0
    4.2015    1.3821   18.8247 C   0  0  0  0  0  0  0  0  0  0  0  0
    3.1163    2.2968   18.9382 C   0  0  0  0  0  0  0  0  0  0  0  0
    2.6068    2.6162   20.1686 C   0  0  0  0  0  0  0  0  0  0  0  0
    3.1457    2.0383   21.3421 C   0  0  0  0  0  0  0  0  0  0  0  0
    4.2030    1.1663   21.2597 C   0  0  0  0  0  0  0  0  0  0  0  0
    4.7665    0.8219   19.9985 C   0  0  0  0  0  0  0  0  0  0  0  0
    6.1307   -1.9289   21.5269 C   0  0  0  0  0  0  0  0  0  0  0  0
    7.3500   -2.2817   22.3911 C   0  0  2  0  0  0  0  0  0  0  0  0
    7.0768   -3.2759   23.5088 C   0  0  0  0  0  0  0  0  0  0  0  0
    6.6845   -4.9047   22.8819 Cl  0  0  0  0  0  0  0  0  0  0  0  0
    9.4081   -0.8514   23.1191 C   0  0  0  0  0  0  0  0  0  0  0  0
   10.3129   -1.7756   22.5838 C   0  0  0  0  0  0  0  0  0  0  0  0
   11.6741   -1.5797   22.7402 C   0  0  0  0  0  0  0  0  0  0  0  0
   12.7733   -2.7179   22.0122 Cl  0  0  0  0  0  0  0  0  0  0  0  0
   12.1829   -0.4829   23.4391 C   0  0  0  0  0  0  0  0  0  0  0  0
   11.2917    0.4237   23.9854 C   0  0  0  0  0  0  0  0  0  0  0  0
    9.9149    0.2464   23.8354 C   0  0  0  0  0  0  0  0  0  0  0  0
    8.9976    1.2689   24.4452 C   0  0  0  0  0  0  0  0  0  0  0  0
    9.3979    2.3451   24.8683 O   0  0  0  0  0  0  0  0  0  0  0  0
    6.1386    5.2593   22.8233 H   0  0  0  0  0  0  0  0  0  0  0  0
    6.6664    4.2963   21.4154 H   0  0  0  0  0  0  0  0  0  0  0  0
    5.0697    4.0204   22.1350 H   0  0  0  0  0  0  0  0  0  0  0  0
    7.5450    2.7920   22.8748 H   0  0  0  0  0  0  0  0  0  0  0  0
    5.9048    1.2399   25.5273 H   0  0  0  0  0  0  0  0  0  0  0  0
    7.2628    2.1913   26.1073 H   0  0  0  0  0  0  0  0  0  0  0  0
    7.3637   -1.0773   24.9537 H   0  0  0  0  0  0  0  0  0  0  0  0
    6.1257   -0.3198   23.9259 H   0  0  0  0  0  0  0  0  0  0  0  0
    7.1398   -1.0277   18.4069 H   0  0  0  0  0  0  0  0  0  0  0  0
    4.3385    1.4418   16.6569 H   0  0  0  0  0  0  0  0  0  0  0  0
    2.7090    2.7447   18.0328 H   0  0  0  0  0  0  0  0  0  0  0  0
    1.7862    3.3238   20.2611 H   0  0  0  0  0  0  0  0  0  0  0  0
    2.7494    2.3120   22.3187 H   0  0  0  0  0  0  0  0  0  0  0  0
    4.6246    0.7312   22.1627 H   0  0  0  0  0  0  0  0  0  0  0  0
    5.2217   -1.8566   22.1494 H   0  0  0  0  0  0  0  0  0  0  0  0
    5.9406   -2.6727   20.7508 H   0  0  0  0  0  0  0  0  0  0  0  0
    8.0783   -2.7405   21.7231 H   0  0  0  0  0  0  0  0  0  0  0  0
    6.2280   -2.9656   24.1174 H   0  0  0  0  0  0  0  0  0  0  0  0
    7.9378   -3.3909   24.1713 H   0  0  0  0  0  0  0  0  0  0  0  0
    9.9666   -2.6505   22.0426 H   0  0  0  0  0  0  0  0  0  0  0  0
   13.2577   -0.3489   23.5319 H   0  0  0  0  0  0  0  0  0  0  0  0
   11.6512    1.2871   24.5366 H   0  0  0  0  0  0  0  0  0  0  0  0
  1  2  1  0
  2  3  1  0
  3  4  2  0
  3  5  1  0
  5  6  1  0
  6  7  1  0
  8  7  1  1
  8  9  1  0
  9 10  2  0
  9 11  1  0
 11 12  1  0
 12 13  2  0
 13 14  1  0
 14 15  2  0
 15 16  1  0
 16 17  2  0
 17 18  1  0
 18 19  2  0
 19 20  1  0
 20 21  2  0
 11 22  1  0
 22 23  1  0
 23 24  1  0
 24 25  1  0
  8 26  1  0
 26 27  2  0
 27 28  1  0
 28 29  1  0
 28 30  2  0
 30 31  1  0
 31 32  2  0
 32 33  1  0
 33 34  2  0
 33  6  1  0
 23  8  1  0
 32 26  1  0
 21 12  1  0
 21 16  1  0
  1 35  1  0
  1 36  1  0
  1 37  1  0
  2 38  1  0
  5 39  1  0
  5 40  1  0
  7 41  1  0
  7 42  1  0
 13 43  1  0
 15 44  1  0
 17 45  1  0
 18 46  1  0
 19 47  1  0
 20 48  1  0
 22 49  1  0
 22 50  1  0
 23 51  1  6
 24 52  1  0
 24 53  1  0
 27 54  1  0
 30 55  1  0
 31 56  1  0
M  END
>  <RMSD>  (97) 
0.17283926372872507

$$$$

     RDKit          3D

 57 60  0  0  0  0  0  0  0  0999 V2000
  -14.7494   -1.1374  -23.5994 C   0  0  0  0  0  0  0  0  0  0  0  0
  -14.0780   -1.9102  -22.4493 C   0  0  0  0  0  0  0  0  0  0  0  0
  -13.6573   -3.3515  -22.6689 C   0  0  0  0  0  0  0  0  0  0  0  0
  -14.2299   -4.2778  -22.1270 O   0  0  0  0  0  0  0  0  0  0  0  0
  -12.5367   -3.5888  -23.4487 N   0  0  0  0  0  0  0  0  0  0  0  0
  -11.5405   -2.6628  -23.8617 C   0  0  0  0  0  0  0  0  0  0  0  0
  -11.7866   -1.6983  -24.8350 C   0  0  0  0  0  0  0  0  0  0  0  0
  -10.8282   -0.7371  -25.1179 C   0  0  0  0  0  0  0  0  0  0  0  0
   -9.5548   -0.7960  -24.5703 C   0  0  0  0  0  0  0  0  0  0  0  0
   -9.2613   -1.8516  -23.7076 C   0  0  0  0  0  0  0  0  0  0  0  0
   -7.9433   -2.0775  -23.1857 N   0  0  0  0  0  0  0  0  0  0  0  0
   -7.1006   -3.0058  -23.9474 C   0  0  0  0  0  0  0  0  0  0  0  0
   -7.5691   -4.4551  -23.9503 C   0  0  0  0  0  0  0  0  0  0  0  0
   -7.1386   -5.3525  -22.9718 C   0  0  0  0  0  0  0  0  0  0  0  0
   -7.5536   -6.6828  -22.9872 C   0  0  0  0  0  0  0  0  0  0  0  0
   -8.4175   -7.1369  -23.9784 C   0  0  0  0  0  0  0  0  0  0  0  0
   -8.8626   -6.2520  -24.9561 C   0  0  0  0  0  0  0  0  0  0  0  0
   -8.4410   -4.9256  -24.9401 C   0  0  0  0  0  0  0  0  0  0  0  0
   -7.7274   -1.5579  -21.9099 C   0  0  0  0  0  0  0  0  0  0  0  0
   -8.4183   -0.6467  -21.4915 O   0  0  0  0  0  0  0  0  0  0  0  0
   -6.6785   -2.2092  -20.9926 C   0  0  0  0  0  0  0  0  0  0  0  0
   -6.0991   -1.2445  -19.9889 C   0  0  0  0  0  0  0  0  0  0  0  0
   -6.5271   -1.2433  -18.6872 C   0  0  0  0  0  0  0  0  0  0  0  0
   -6.0282   -0.4632  -17.6926 N   0  0  0  0  0  0  0  0  0  0  0  0
   -5.0690    0.3670  -18.0085 C   0  0  0  0  0  0  0  0  0  0  0  0
   -4.5595    0.5198  -19.3255 C   0  0  0  0  0  0  0  0  0  0  0  0
   -3.5619    1.4792  -19.6297 C   0  0  0  0  0  0  0  0  0  0  0  0
   -3.1157    1.6280  -20.9140 C   0  0  0  0  0  0  0  0  0  0  0  0
   -3.6435    0.8174  -21.9445 C   0  0  0  0  0  0  0  0  0  0  0  0
   -4.6031   -0.1247  -21.6705 C   0  0  0  0  0  0  0  0  0  0  0  0
   -5.0942   -0.2978  -20.3501 C   0  0  0  0  0  0  0  0  0  0  0  0
  -10.2603   -2.7389  -23.3218 C   0  0  0  0  0  0  0  0  0  0  0  0
  -14.4939   -1.5013  -24.5986 H   0  0  0  0  0  0  0  0  0  0  0  0
  -15.8317   -1.1662  -23.4910 H   0  0  0  0  0  0  0  0  0  0  0  0
  -14.4535   -0.0854  -23.5382 H   0  0  0  0  0  0  0  0  0  0  0  0
  -13.1875   -1.3558  -22.1241 H   0  0  0  0  0  0  0  0  0  0  0  0
  -14.7571   -1.9809  -21.5958 H   0  0  0  0  0  0  0  0  0  0  0  0
  -12.2083   -4.5436  -23.3549 H   0  0  0  0  0  0  0  0  0  0  0  0
  -12.7217   -1.7126  -25.3820 H   0  0  0  0  0  0  0  0  0  0  0  0
  -11.1040    0.0670  -25.7793 H   0  0  0  0  0  0  0  0  0  0  0  0
   -8.8172   -0.0409  -24.8250 H   0  0  0  0  0  0  0  0  0  0  0  0
   -7.0841   -2.6532  -24.9886 H   0  0  0  0  0  0  0  0  0  0  0  0
   -6.0738   -2.9362  -23.5763 H   0  0  0  0  0  0  0  0  0  0  0  0
   -6.4590   -5.0136  -22.1890 H   0  0  0  0  0  0  0  0  0  0  0  0
   -7.1912   -7.3664  -22.2243 H   0  0  0  0  0  0  0  0  0  0  0  0
   -8.7409   -8.1746  -23.9954 H   0  0  0  0  0  0  0  0  0  0  0  0
   -9.5373   -6.5958  -25.7380 H   0  0  0  0  0  0  0  0  0  0  0  0
   -8.8185   -4.2304  -25.6905 H   0  0  0  0  0  0  0  0  0  0  0  0
   -5.8899   -2.7008  -21.5635 H   0  0  0  0  0  0  0  0  0  0  0  0
   -7.2108   -3.0017  -20.4451 H   0  0  0  0  0  0  0  0  0  0  0  0
   -7.3238   -1.9211  -18.3801 H   0  0  0  0  0  0  0  0  0  0  0  0
   -4.6515    0.9768  -17.2051 H   0  0  0  0  0  0  0  0  0  0  0  0
   -3.1779    2.0953  -18.8191 H   0  0  0  0  0  0  0  0  0  0  0  0
   -2.3615    2.3729  -21.1510 H   0  0  0  0  0  0  0  0  0  0  0  0
   -3.2959    0.9511  -22.9650 H   0  0  0  0  0  0  0  0  0  0  0  0
   -5.0049   -0.7312  -22.4756 H   0  0  0  0  0  0  0  0  0  0  0  0
  -10.0034   -3.5336  -22.6250 H   0  0  0  0  0  0  0  0  0  0  0  0
  1  2  1  0
  2  3  1  0
  3  4  2  0
  3  5  1  0
  5  6  1  0
  6  7  2  0
  7  8  1  0
  8  9  2  0
  9 10  1  0
 10 11  1  0
 11 12  1  0
 12 13  1  0
 13 14  2  0
 14 15  1  0
 15 16  2  0
 16 17  1  0
 17 18  2  0
 11 19  1  0
 19 20  2  0
 19 21  1  0
 21 22  1  0
 22 23  2  0
 23 24  1  0
 24 25  2  0
 25 26  1  0
 26 27  2  0
 27 28  1  0
 28 29  2  0
 29 30  1  0
 30 31  2  0
 10 32  2  0
 32  6  1  0
 18 13  1  0
 31 22  1  0
 31 26  1  0
  1 33  1  0
  1 34  1  0
  1 35  1  0
  2 36  1  0
  2 37  1  0
  5 38  1  0
  7 39  1  0
  8 40  1  0
  9 41  1  0
 12 42  1  0
 12 43  1  0
 14 44  1  0
 15 45  1  0
 16 46  1  0
 17 47  1  0
 18 48  1  0
 21 49  1  0
 21 50  1  0
 23 51  1  0
 25 52  1  0
 27 53  1  0
 28 54  1  0
 29 55  1  0
 30 56  1  0
 32 57  1  0
M  END
>  <RMSD>  (98) 
0.0542007914179491

$$$$

     RDKit          3D

 60 64  0  0  0  0  0  0  0  0999 V2000
   -6.7629    2.6517  -23.2213 C   0  0  0  0  0  0  0  0  0  0  0  0
   -7.3106    1.4756  -23.8584 N   0  0  0  0  0  0  0  0  0  0  0  0
   -6.8335    1.0648  -25.0520 C   0  0  0  0  0  0  0  0  0  0  0  0
   -6.0155    1.6974  -25.7052 O   0  0  0  0  0  0  0  0  0  0  0  0
   -7.3287   -0.2860  -25.5801 C   0  0  0  0  0  0  0  0  0  0  0  0
   -8.1474   -1.0827  -24.6894 N   0  0  0  0  0  0  0  0  0  0  0  0
   -7.5847   -2.2952  -24.1199 C   0  0  0  0  0  0  0  0  0  0  0  0
   -8.2305   -2.6432  -22.7546 C   0  0  2  0  0  0  0  0  0  0  0  0
   -7.8765   -1.5405  -21.7248 C   0  0  0  0  0  0  0  0  0  0  0  0
   -8.4061   -0.4540  -21.5913 O   0  0  0  0  0  0  0  0  0  0  0  0
   -6.8131   -1.9834  -20.9688 N   0  0  0  0  0  0  0  0  0  0  0  0
   -6.1780   -1.1528  -20.0050 C   0  0  0  0  0  0  0  0  0  0  0  0
   -6.5470   -1.2426  -18.6875 C   0  0  0  0  0  0  0  0  0  0  0  0
   -6.0146   -0.5017  -17.6826 N   0  0  0  0  0  0  0  0  0  0  0  0
   -5.0748    0.3599  -17.9998 C   0  0  0  0  0  0  0  0  0  0  0  0
   -4.5714    0.5407  -19.3221 C   0  0  0  0  0  0  0  0  0  0  0  0
   -3.5533    1.4876  -19.6291 C   0  0  0  0  0  0  0  0  0  0  0  0
   -3.0976    1.6214  -20.9140 C   0  0  0  0  0  0  0  0  0  0  0  0
   -3.6260    0.8174  -21.9517 C   0  0  0  0  0  0  0  0  0  0  0  0
   -4.6203   -0.0910  -21.6832 C   0  0  0  0  0  0  0  0  0  0  0  0
   -5.1276   -0.2473  -20.3622 C   0  0  0  0  0  0  0  0  0  0  0  0
   -6.3474   -3.3054  -21.3497 C   0  0  0  0  0  0  0  0  0  0  0  0
   -7.5592   -3.8808  -22.0981 C   0  0  2  0  0  0  0  0  0  0  0  0
   -7.2069   -5.0448  -23.0095 C   0  0  0  0  0  0  0  0  0  0  0  0
   -8.3518   -5.4929  -23.6974 O   0  0  0  0  0  0  0  0  0  0  0  0
   -8.0344   -6.5158  -24.6109 C   0  0  0  0  0  0  0  0  0  0  0  0
   -9.7253   -2.7153  -22.9786 C   0  0  0  0  0  0  0  0  0  0  0  0
  -10.5517   -3.5835  -22.2556 C   0  0  0  0  0  0  0  0  0  0  0  0
  -11.9261   -3.5071  -22.3951 C   0  0  0  0  0  0  0  0  0  0  0  0
  -12.9272   -4.5712  -21.4473 Cl  0  0  0  0  0  0  0  0  0  0  0  0
  -12.5254   -2.5832  -23.2550 C   0  0  0  0  0  0  0  0  0  0  0  0
  -11.7111   -1.7310  -23.9804 C   0  0  0  0  0  0  0  0  0  0  0  0
  -10.3223   -1.7932  -23.8550 C   0  0  0  0  0  0  0  0  0  0  0  0
   -9.4930   -0.8359  -24.6634 C   0  0  0  0  0  0  0  0  0  0  0  0
   -9.9732    0.1252  -25.2494 O   0  0  0  0  0  0  0  0  0  0  0  0
   -6.8656    3.5426  -23.8489 H   0  0  0  0  0  0  0  0  0  0  0  0
   -7.2925    2.8055  -22.2798 H   0  0  0  0  0  0  0  0  0  0  0  0
   -5.6999    2.5096  -22.9994 H   0  0  0  0  0  0  0  0  0  0  0  0
   -8.1026    1.0188  -23.4260 H   0  0  0  0  0  0  0  0  0  0  0  0
   -6.4330   -0.8606  -25.8341 H   0  0  0  0  0  0  0  0  0  0  0  0
   -7.8659   -0.1087  -26.5185 H   0  0  0  0  0  0  0  0  0  0  0  0
   -6.5105   -2.1352  -23.9819 H   0  0  0  0  0  0  0  0  0  0  0  0
   -7.7231   -3.1359  -24.8133 H   0  0  0  0  0  0  0  0  0  0  0  0
   -7.3290   -1.9376  -18.3911 H   0  0  0  0  0  0  0  0  0  0  0  0
   -4.6573    0.9644  -17.1922 H   0  0  0  0  0  0  0  0  0  0  0  0
   -3.1550    2.1093  -18.8278 H   0  0  0  0  0  0  0  0  0  0  0  0
   -2.3295    2.3522  -21.1559 H   0  0  0  0  0  0  0  0  0  0  0  0
   -3.2748    0.9426  -22.9750 H   0  0  0  0  0  0  0  0  0  0  0  0
   -5.0345   -0.7013  -22.4822 H   0  0  0  0  0  0  0  0  0  0  0  0
   -5.4584   -3.2806  -22.0056 H   0  0  0  0  0  0  0  0  0  0  0  0
   -6.0808   -3.8845  -20.4630 H   0  0  0  0  0  0  0  0  0  0  0  0
   -8.2454   -4.2531  -21.3375 H   0  0  0  0  0  0  0  0  0  0  0  0
   -6.4393   -4.7282  -23.7305 H   0  0  0  0  0  0  0  0  0  0  0  0
   -6.7750   -5.8737  -22.4241 H   0  0  0  0  0  0  0  0  0  0  0  0
   -8.9604   -6.8551  -25.0827 H   0  0  0  0  0  0  0  0  0  0  0  0
   -7.3444   -6.1682  -25.3966 H   0  0  0  0  0  0  0  0  0  0  0  0
   -7.5554   -7.3725  -24.1122 H   0  0  0  0  0  0  0  0  0  0  0  0
  -10.1259   -4.3351  -21.5984 H   0  0  0  0  0  0  0  0  0  0  0  0
  -13.6090   -2.5345  -23.3302 H   0  0  0  0  0  0  0  0  0  0  0  0
  -12.1398   -0.9986  -24.6574 H   0  0  0  0  0  0  0  0  0  0  0  0
  1  2  1  0
  2  3  1  0
  3  4  2  0
  3  5  1  0
  5  6  1  0
  6  7  1  0
  8  7  1  6
  8  9  1  0
  9 10  2  0
  9 11  1  0
 11 12  1  0
 12 13  2  0
 13 14  1  0
 14 15  2  0
 15 16  1  0
 16 17  2  0
 17 18  1  0
 18 19  2  0
 19 20  1  0
 20 21  2  0
 11 22  1  0
 22 23  1  0
 23 24  1  0
 24 25  1  0
 25 26  1  0
  8 27  1  0
 27 28  2  0
 28 29  1  0
 29 30  1  0
 29 31  2  0
 31 32  1  0
 32 33  2  0
 33 34  1  0
 34 35  2  0
 34  6  1  0
 23  8  1  0
 33 27  1  0
 21 12  1  0
 21 16  1  0
  1 36  1  0
  1 37  1  0
  1 38  1  0
  2 39  1  0
  5 40  1  0
  5 41  1  0
  7 42  1  0
  7 43  1  0
 13 44  1  0
 15 45  1  0
 17 46  1  0
 18 47  1  0
 19 48  1  0
 20 49  1  0
 22 50  1  0
 22 51  1  0
 23 52  1  1
 24 53  1  0
 24 54  1  0
 26 55  1  0
 26 56  1  0
 26 57  1  0
 28 58  1  0
 31 59  1  0
 32 60  1  0
M  END
>  <RMSD>  (99) 
0.05748075434404469

$$$$

     RDKit          3D

 64 68  0  0  0  0  0  0  0  0999 V2000
    4.0668   -4.1939   24.0941 C   0  0  0  0  0  0  0  0  0  0  0  0
    4.7633   -4.7625   22.8728 C   0  0  0  0  0  0  0  0  0  0  0  0
    6.5347   -4.7862   22.9957 S   0  0  0  0  0  0  0  0  0  0  0  0
    6.9887   -5.0816   21.6440 O   0  0  0  0  0  0  0  0  0  0  0  0
    6.8814   -5.6279   24.1264 O   0  0  0  0  0  0  0  0  0  0  0  0
    7.0159   -3.2308   23.4511 N   0  0  0  0  0  0  0  0  0  0  0  0
    7.3497   -2.2890   22.3752 C   0  0  1  0  0  0  0  0  0  0  0  0
    6.1289   -1.9367   21.5157 C   0  0  0  0  0  0  0  0  0  0  0  0
    6.5260   -0.6683   20.9394 N   0  0  0  0  0  0  0  0  0  0  0  0
    5.8838   -0.0590   19.8262 C   0  0  0  0  0  0  0  0  0  0  0  0
    6.3076   -0.3418   18.5535 C   0  0  0  0  0  0  0  0  0  0  0  0
    5.7625    0.1786   17.4225 N   0  0  0  0  0  0  0  0  0  0  0  0
    4.7596    1.0120   17.5707 C   0  0  0  0  0  0  0  0  0  0  0  0
    4.2039    1.3863   18.8299 C   0  0  0  0  0  0  0  0  0  0  0  0
    3.1160    2.2952   18.9422 C   0  0  0  0  0  0  0  0  0  0  0  0
    2.6024    2.6138   20.1704 C   0  0  0  0  0  0  0  0  0  0  0  0
    3.1447    2.0385   21.3431 C   0  0  0  0  0  0  0  0  0  0  0  0
    4.2037    1.1685   21.2601 C   0  0  0  0  0  0  0  0  0  0  0  0
    4.7724    0.8281   20.0007 C   0  0  0  0  0  0  0  0  0  0  0  0
    7.5361   -0.0347   21.6309 C   0  0  0  0  0  0  0  0  0  0  0  0
    8.0042    1.0446   21.3228 O   0  0  0  0  0  0  0  0  0  0  0  0
    7.9196   -0.9252   22.8424 C   0  0  1  0  0  0  0  0  0  0  0  0
    7.2002   -0.4094   24.1115 C   0  0  0  0  0  0  0  0  0  0  0  0
    7.6783    0.9152   24.4816 N   0  0  0  0  0  0  0  0  0  0  0  0
    6.7847    1.8053   25.1959 C   0  0  0  0  0  0  0  0  0  0  0  0
    6.2212    3.0120   24.4284 C   0  0  0  0  0  0  0  0  0  0  0  0
    5.3401    3.6922   24.9416 O   0  0  0  0  0  0  0  0  0  0  0  0
    6.7204    3.2576   23.1992 N   0  0  0  0  0  0  0  0  0  0  0  0
    6.1142    4.2677   22.3512 C   0  0  0  0  0  0  0  0  0  0  0  0
    9.0058    1.2471   24.4463 C   0  0  0  0  0  0  0  0  0  0  0  0
    9.4010    2.3236   24.8794 O   0  0  0  0  0  0  0  0  0  0  0  0
    9.9217    0.2353   23.8224 C   0  0  0  0  0  0  0  0  0  0  0  0
   11.2961    0.4128   23.9736 C   0  0  0  0  0  0  0  0  0  0  0  0
   12.1866   -0.4917   23.4254 C   0  0  0  0  0  0  0  0  0  0  0  0
   11.6768   -1.5855   22.7240 C   0  0  0  0  0  0  0  0  0  0  0  0
   12.7824   -2.7262   22.0061 Cl  0  0  0  0  0  0  0  0  0  0  0  0
   10.3145   -1.7769   22.5665 C   0  0  0  0  0  0  0  0  0  0  0  0
    9.4094   -0.8553   23.1026 C   0  0  0  0  0  0  0  0  0  0  0  0
    2.9843   -4.2630   23.9486 H   0  0  0  0  0  0  0  0  0  0  0  0
    4.3390   -4.7611   24.9895 H   0  0  0  0  0  0  0  0  0  0  0  0
    4.3366   -3.1419   24.2409 H   0  0  0  0  0  0  0  0  0  0  0  0
    4.5298   -5.8213   22.7022 H   0  0  0  0  0  0  0  0  0  0  0  0
    4.5446   -4.2251   21.9473 H   0  0  0  0  0  0  0  0  0  0  0  0
    7.7866   -3.3791   24.1024 H   0  0  0  0  0  0  0  0  0  0  0  0
    8.0870   -2.7455   21.7109 H   0  0  0  0  0  0  0  0  0  0  0  0
    5.9273   -2.6727   20.7309 H   0  0  0  0  0  0  0  0  0  0  0  0
    5.2262   -1.8485   22.1438 H   0  0  0  0  0  0  0  0  0  0  0  0
    7.1395   -1.0278   18.4038 H   0  0  0  0  0  0  0  0  0  0  0  0
    4.3399    1.4370   16.6583 H   0  0  0  0  0  0  0  0  0  0  0  0
    2.7184    2.7358   18.0307 H   0  0  0  0  0  0  0  0  0  0  0  0
    1.7855    3.3247   20.2592 H   0  0  0  0  0  0  0  0  0  0  0  0
    2.7486    2.3149   22.3182 H   0  0  0  0  0  0  0  0  0  0  0  0
    4.6222    0.7312   22.1623 H   0  0  0  0  0  0  0  0  0  0  0  0
    7.3550   -1.1252   24.9285 H   0  0  0  0  0  0  0  0  0  0  0  0
    6.1258   -0.3320   23.9153 H   0  0  0  0  0  0  0  0  0  0  0  0
    5.9108    1.2383   25.5285 H   0  0  0  0  0  0  0  0  0  0  0  0
    7.2851    2.1950   26.0892 H   0  0  0  0  0  0  0  0  0  0  0  0
    7.5156    2.7443   22.8454 H   0  0  0  0  0  0  0  0  0  0  0  0
    6.6738    4.2929   21.4106 H   0  0  0  0  0  0  0  0  0  0  0  0
    5.0673    4.0136   22.1343 H   0  0  0  0  0  0  0  0  0  0  0  0
    6.1379    5.2575   22.8232 H   0  0  0  0  0  0  0  0  0  0  0  0
   11.6344    1.2833   24.5254 H   0  0  0  0  0  0  0  0  0  0  0  0
   13.2594   -0.3576   23.5246 H   0  0  0  0  0  0  0  0  0  0  0  0
    9.9663   -2.6490   22.0258 H   0  0  0  0  0  0  0  0  0  0  0  0
  1  2  1  0
  2  3  1  0
  3  4  2  0
  3  5  2  0
  3  6  1  0
  6  7  1  0
  7  8  1  0
  8  9  1  0
  9 10  1  0
 10 11  2  0
 11 12  1  0
 12 13  2  0
 13 14  1  0
 14 15  2  0
 15 16  1  0
 16 17  2  0
 17 18  1  0
 18 19  2  0
  9 20  1  0
 20 21  2  0
 20 22  1  0
 22 23  1  1
 23 24  1  0
 24 25  1  0
 25 26  1  0
 26 27  2  0
 26 28  1  0
 28 29  1  0
 24 30  1  0
 30 31  2  0
 30 32  1  0
 32 33  2  0
 33 34  1  0
 34 35  2  0
 35 36  1  0
 35 37  1  0
 37 38  2  0
 22  7  1  0
 38 32  1  0
 19 10  1  0
 38 22  1  0
 19 14  1  0
  1 39  1  0
  1 40  1  0
  1 41  1  0
  2 42  1  0
  2 43  1  0
  6 44  1  0
  7 45  1  6
  8 46  1  0
  8 47  1  0
 11 48  1  0
 13 49  1  0
 15 50  1  0
 16 51  1  0
 17 52  1  0
 18 53  1  0
 23 54  1  0
 23 55  1  0
 25 56  1  0
 25 57  1  0
 28 58  1  0
 29 59  1  0
 29 60  1  0
 29 61  1  0
 33 62  1  0
 34 63  1  0
 37 64  1  0
M  END
>  <RMSD>  (100) 
0.17481757002715478

$$$$

     RDKit          3D

 56 60  0  0  0  0  0  0  0  0999 V2000
    6.1132    4.2694   22.3564 C   0  0  0  0  0  0  0  0  0  0  0  0
    6.7087    3.2584   23.2009 N   0  0  0  0  0  0  0  0  0  0  0  0
    6.2142    3.0259   24.4349 C   0  0  0  0  0  0  0  0  0  0  0  0
    5.3358    3.7045   24.9482 O   0  0  0  0  0  0  0  0  0  0  0  0
    6.7722    1.8207   25.2004 C   0  0  0  0  0  0  0  0  0  0  0  0
    7.6703    0.9406   24.4799 N   0  0  0  0  0  0  0  0  0  0  0  0
    7.2039   -0.3845   24.1137 C   0  0  0  0  0  0  0  0  0  0  0  0
    7.9204   -0.9149   22.8449 C   0  0  2  0  0  0  0  0  0  0  0  0
    7.5393   -0.0280   21.6324 C   0  0  0  0  0  0  0  0  0  0  0  0
    8.0062    1.0528   21.3289 O   0  0  0  0  0  0  0  0  0  0  0  0
    6.5333   -0.6640   20.9380 N   0  0  0  0  0  0  0  0  0  0  0  0
    5.8831   -0.0576   19.8297 C   0  0  0  0  0  0  0  0  0  0  0  0
    6.3055   -0.3464   18.5575 C   0  0  0  0  0  0  0  0  0  0  0  0
    5.7657    0.1750   17.4269 N   0  0  0  0  0  0  0  0  0  0  0  0
    4.7633    1.0127   17.5669 C   0  0  0  0  0  0  0  0  0  0  0  0
    4.2014    1.3820   18.8249 C   0  0  0  0  0  0  0  0  0  0  0  0
    3.1163    2.2967   18.9381 C   0  0  0  0  0  0  0  0  0  0  0  0
    2.6066    2.6164   20.1686 C   0  0  0  0  0  0  0  0  0  0  0  0
    3.1453    2.0385   21.3424 C   0  0  0  0  0  0  0  0  0  0  0  0
    4.2027    1.1665   21.2601 C   0  0  0  0  0  0  0  0  0  0  0  0
    4.7662    0.8219   19.9989 C   0  0  0  0  0  0  0  0  0  0  0  0
    6.1352   -1.9303   21.5282 C   0  0  0  0  0  0  0  0  0  0  0  0
    7.3487   -2.2880   22.3963 C   0  0  2  0  0  0  0  0  0  0  0  0
    7.0586   -3.2933   23.5028 C   0  0  0  0  0  0  0  0  0  0  0  0
    9.4073   -0.8517   23.1159 C   0  0  0  0  0  0  0  0  0  0  0  0
   10.3103   -1.7794   22.5856 C   0  0  0  0  0  0  0  0  0  0  0  0
   11.6649   -1.5757   22.7572 C   0  0  0  0  0  0  0  0  0  0  0  0
   12.5148   -2.4646   22.2147 F   0  0  0  0  0  0  0  0  0  0  0  0
   12.1872   -0.4841   23.4450 C   0  0  0  0  0  0  0  0  0  0  0  0
   11.2929    0.4223   23.9845 C   0  0  0  0  0  0  0  0  0  0  0  0
    9.9153    0.2457   23.8333 C   0  0  0  0  0  0  0  0  0  0  0  0
    8.9982    1.2671   24.4449 C   0  0  0  0  0  0  0  0  0  0  0  0
    9.3974    2.3433   24.8693 O   0  0  0  0  0  0  0  0  0  0  0  0
    6.6665    4.2960   21.4162 H   0  0  0  0  0  0  0  0  0  0  0  0
    6.1382    5.2591   22.8237 H   0  0  0  0  0  0  0  0  0  0  0  0
    5.0697    4.0204   22.1354 H   0  0  0  0  0  0  0  0  0  0  0  0
    7.5443    2.7913   22.8753 H   0  0  0  0  0  0  0  0  0  0  0  0
    5.9042    1.2398   25.5278 H   0  0  0  0  0  0  0  0  0  0  0  0
    7.2621    2.1914   26.1078 H   0  0  0  0  0  0  0  0  0  0  0  0
    7.3646   -1.0823   24.9488 H   0  0  0  0  0  0  0  0  0  0  0  0
    6.1275   -0.3222   23.9254 H   0  0  0  0  0  0  0  0  0  0  0  0
    7.1399   -1.0274   18.4065 H   0  0  0  0  0  0  0  0  0  0  0  0
    4.3390    1.4416   16.6572 H   0  0  0  0  0  0  0  0  0  0  0  0
    2.7094    2.7445   18.0325 H   0  0  0  0  0  0  0  0  0  0  0  0
    1.7862    3.3241   20.2610 H   0  0  0  0  0  0  0  0  0  0  0  0
    2.7491    2.3123   22.3190 H   0  0  0  0  0  0  0  0  0  0  0  0
    4.6240    0.7309   22.1631 H   0  0  0  0  0  0  0  0  0  0  0  0
    5.9404   -2.6712   20.7497 H   0  0  0  0  0  0  0  0  0  0  0  0
    5.2247   -1.8561   22.1488 H   0  0  0  0  0  0  0  0  0  0  0  0
    8.0780   -2.7328   21.7159 H   0  0  0  0  0  0  0  0  0  0  0  0
    7.9266   -3.4400   24.1535 H   0  0  0  0  0  0  0  0  0  0  0  0
    6.7783   -4.2701   23.0969 H   0  0  0  0  0  0  0  0  0  0  0  0
    6.2375   -2.9539   24.1404 H   0  0  0  0  0  0  0  0  0  0  0  0
    9.9779   -2.6596   22.0440 H   0  0  0  0  0  0  0  0  0  0  0  0
   13.2647   -0.3633   23.5323 H   0  0  0  0  0  0  0  0  0  0  0  0
   11.6522    1.2838   24.5364 H   0  0  0  0  0  0  0  0  0  0  0  0
  1  2  1  0
  2  3  1  0
  3  4  2  0
  3  5  1  0
  5  6  1  0
  6  7  1  0
  8  7  1  1
  8  9  1  0
  9 10  2  0
  9 11  1  0
 11 12  1  0
 12 13  2  0
 13 14  1  0
 14 15  2  0
 15 16  1  0
 16 17  2  0
 17 18  1  0
 18 19  2  0
 19 20  1  0
 20 21  2  0
 11 22  1  0
 22 23  1  0
 23 24  1  0
  8 25  1  0
 25 26  2  0
 26 27  1  0
 27 28  1  0
 27 29  2  0
 29 30  1  0
 30 31  2  0
 31 32  1  0
 32 33  2  0
 32  6  1  0
 23  8  1  0
 31 25  1  0
 21 12  1  0
 21 16  1  0
  1 34  1  0
  1 35  1  0
  1 36  1  0
  2 37  1  0
  5 38  1  0
  5 39  1  0
  7 40  1  0
  7 41  1  0
 13 42  1  0
 15 43  1  0
 17 44  1  0
 18 45  1  0
 19 46  1  0
 20 47  1  0
 22 48  1  0
 22 49  1  0
 23 50  1  6
 24 51  1  0
 24 52  1  0
 24 53  1  0
 26 54  1  0
 29 55  1  0
 30 56  1  0
M  END
>  <RMSD>  (101) 
0.17262060827131823

$$$$

     RDKit          3D

 41 43  0  0  0  0  0  0  0  0999 V2000
   11.3052   -3.7525   22.0614 C   0  0  0  0  0  0  0  0  0  0  0  0
   10.1969   -2.7559   22.3420 C   0  0  1  0  0  0  0  0  0  0  0  0
    8.8110   -3.4157   22.2937 C   0  0  0  0  0  0  0  0  0  0  0  0
    7.7137   -2.6058   23.0164 C   0  0  0  0  0  0  0  0  0  0  0  0
    7.8202   -1.1521   22.8607 N   0  0  0  0  0  0  0  0  0  0  0  0
    7.5856   -0.5496   21.6325 C   0  0  0  0  0  0  0  0  0  0  0  0
    8.3188    0.3012   21.1634 O   0  0  0  0  0  0  0  0  0  0  0  0
    6.2954   -1.0336   20.9630 C   0  0  0  0  0  0  0  0  0  0  0  0
    5.7640   -0.1988   19.8322 C   0  0  0  0  0  0  0  0  0  0  0  0
    6.1583   -0.4954   18.5597 C   0  0  0  0  0  0  0  0  0  0  0  0
    5.7194    0.1176   17.4290 N   0  0  0  0  0  0  0  0  0  0  0  0
    4.8182    1.0588   17.5825 C   0  0  0  0  0  0  0  0  0  0  0  0
    4.2653    1.4459   18.8359 C   0  0  0  0  0  0  0  0  0  0  0  0
    3.1857    2.3649   18.9561 C   0  0  0  0  0  0  0  0  0  0  0  0
    2.5806    2.5748   20.1658 C   0  0  0  0  0  0  0  0  0  0  0  0
    3.1199    1.9906   21.3305 C   0  0  0  0  0  0  0  0  0  0  0  0
    4.2195    1.1773   21.2589 C   0  0  0  0  0  0  0  0  0  0  0  0
    4.7735    0.8152   20.0047 C   0  0  0  0  0  0  0  0  0  0  0  0
    8.6930   -0.4703   23.8088 C   0  0  0  0  0  0  0  0  0  0  0  0
   10.1847   -0.7759   23.6707 C   0  0  0  0  0  0  0  0  0  0  0  0
   10.4624   -2.1581   23.6074 O   0  0  0  0  0  0  0  0  0  0  0  0
   11.1551   -4.2173   21.0810 H   0  0  0  0  0  0  0  0  0  0  0  0
   11.3212   -4.5338   22.8279 H   0  0  0  0  0  0  0  0  0  0  0  0
   12.2752   -3.2458   22.0616 H   0  0  0  0  0  0  0  0  0  0  0  0
   10.2335   -1.9695   21.5765 H   0  0  0  0  0  0  0  0  0  0  0  0
    8.8623   -4.4189   22.7397 H   0  0  0  0  0  0  0  0  0  0  0  0
    8.5424   -3.5654   21.2381 H   0  0  0  0  0  0  0  0  0  0  0  0
    6.7258   -2.9372   22.6780 H   0  0  0  0  0  0  0  0  0  0  0  0
    7.7691   -2.8137   24.0878 H   0  0  0  0  0  0  0  0  0  0  0  0
    5.5402   -1.1481   21.7476 H   0  0  0  0  0  0  0  0  0  0  0  0
    6.4925   -2.0455   20.5807 H   0  0  0  0  0  0  0  0  0  0  0  0
    6.8882   -1.2930   18.4146 H   0  0  0  0  0  0  0  0  0  0  0  0
    4.4611    1.5273   16.6655 H   0  0  0  0  0  0  0  0  0  0  0  0
    2.8607    2.9250   18.0812 H   0  0  0  0  0  0  0  0  0  0  0  0
    1.6536    3.1353   20.2520 H   0  0  0  0  0  0  0  0  0  0  0  0
    2.6418    2.1709   22.2836 H   0  0  0  0  0  0  0  0  0  0  0  0
    4.6740    0.8129   22.1761 H   0  0  0  0  0  0  0  0  0  0  0  0
    8.5272    0.6073   23.7139 H   0  0  0  0  0  0  0  0  0  0  0  0
    8.3623   -0.7722   24.8112 H   0  0  0  0  0  0  0  0  0  0  0  0
   10.7115   -0.3884   24.5532 H   0  0  0  0  0  0  0  0  0  0  0  0
   10.5920   -0.2615   22.7869 H   0  0  0  0  0  0  0  0  0  0  0  0
  1  2  1  0
  2  3  1  0
  3  4  1  0
  4  5  1  0
  5  6  1  0
  6  7  2  0
  6  8  1  0
  8  9  1  0
  9 10  2  0
 10 11  1  0
 11 12  2  0
 12 13  1  0
 13 14  2  0
 14 15  1  0
 15 16  2  0
 16 17  1  0
 17 18  2  0
  5 19  1  0
 19 20  1  0
 20 21  1  0
 21  2  1  0
 18  9  1  0
 18 13  1  0
  1 22  1  0
  1 23  1  0
  1 24  1  0
  2 25  1  6
  3 26  1  0
  3 27  1  0
  4 28  1  0
  4 29  1  0
  8 30  1  0
  8 31  1  0
 10 32  1  0
 12 33  1  0
 14 34  1  0
 15 35  1  0
 16 36  1  0
 17 37  1  0
 19 38  1  0
 19 39  1  0
 20 40  1  0
 20 41  1  0
M  END
>  <RMSD>  (102) 
0.11364089961156668

$$$$

     RDKit          3D

 42 45  0  0  0  0  0  0  0  0999 V2000
   -7.4370   -0.1612  -25.6106 C   0  0  0  0  0  0  0  0  0  0  0  0
   -8.2408   -0.8467  -24.6162 N   0  0  0  0  0  0  0  0  0  0  0  0
   -7.7049   -2.0988  -24.1184 C   0  0  0  0  0  0  0  0  0  0  0  0
   -8.3639   -2.5003  -22.7950 C   0  0  1  0  0  0  0  0  0  0  0  0
   -7.9332   -1.5700  -21.6541 C   0  0  0  0  0  0  0  0  0  0  0  0
   -8.5336   -0.5602  -21.3482 O   0  0  0  0  0  0  0  0  0  0  0  0
   -6.7853   -1.9575  -20.9977 N   0  0  0  0  0  0  0  0  0  0  0  0
   -6.1658   -1.1529  -20.0036 C   0  0  0  0  0  0  0  0  0  0  0  0
   -6.5324   -1.2538  -18.6865 C   0  0  0  0  0  0  0  0  0  0  0  0
   -5.9989   -0.5201  -17.6778 N   0  0  0  0  0  0  0  0  0  0  0  0
   -5.0703    0.3537  -17.9937 C   0  0  0  0  0  0  0  0  0  0  0  0
   -4.5676    0.5400  -19.3143 C   0  0  0  0  0  0  0  0  0  0  0  0
   -3.5666    1.4997  -19.6322 C   0  0  0  0  0  0  0  0  0  0  0  0
   -3.1150    1.6261  -20.9191 C   0  0  0  0  0  0  0  0  0  0  0  0
   -3.6310    0.8053  -21.9486 C   0  0  0  0  0  0  0  0  0  0  0  0
   -4.6016   -0.1220  -21.6715 C   0  0  0  0  0  0  0  0  0  0  0  0
   -5.1044   -0.2597  -20.3478 C   0  0  0  0  0  0  0  0  0  0  0  0
   -9.8554   -2.4762  -22.9569 C   0  0  0  0  0  0  0  0  0  0  0  0
  -10.6573   -3.3455  -22.2168 C   0  0  0  0  0  0  0  0  0  0  0  0
  -12.0374   -3.2373  -22.2970 C   0  0  0  0  0  0  0  0  0  0  0  0
  -13.0328   -4.3274  -21.3767 Cl  0  0  0  0  0  0  0  0  0  0  0  0
  -12.6387   -2.2650  -23.0997 C   0  0  0  0  0  0  0  0  0  0  0  0
  -11.8349   -1.4040  -23.8292 C   0  0  0  0  0  0  0  0  0  0  0  0
  -10.4404   -1.5106  -23.7688 C   0  0  0  0  0  0  0  0  0  0  0  0
   -9.5882   -0.5832  -24.5953 C   0  0  0  0  0  0  0  0  0  0  0  0
  -10.0839    0.3180  -25.2448 O   0  0  0  0  0  0  0  0  0  0  0  0
   -7.5092   -0.6352  -26.5986 H   0  0  0  0  0  0  0  0  0  0  0  0
   -6.3928   -0.1813  -25.2905 H   0  0  0  0  0  0  0  0  0  0  0  0
   -7.7685    0.8717  -25.6995 H   0  0  0  0  0  0  0  0  0  0  0  0
   -6.6304   -1.9640  -23.9664 H   0  0  0  0  0  0  0  0  0  0  0  0
   -7.8274   -2.9099  -24.8543 H   0  0  0  0  0  0  0  0  0  0  0  0
   -8.0367   -3.5095  -22.5360 H   0  0  0  0  0  0  0  0  0  0  0  0
   -6.2758   -2.7555  -21.3459 H   0  0  0  0  0  0  0  0  0  0  0  0
   -7.3005   -1.9661  -18.3924 H   0  0  0  0  0  0  0  0  0  0  0  0
   -4.6581    0.9673  -17.1910 H   0  0  0  0  0  0  0  0  0  0  0  0
   -3.1784    2.1343  -18.8387 H   0  0  0  0  0  0  0  0  0  0  0  0
   -2.3557    2.3646  -21.1635 H   0  0  0  0  0  0  0  0  0  0  0  0
   -3.2620    0.9117  -22.9647 H   0  0  0  0  0  0  0  0  0  0  0  0
   -5.0083   -0.7464  -22.4622 H   0  0  0  0  0  0  0  0  0  0  0  0
  -10.2061   -4.1067  -21.5831 H   0  0  0  0  0  0  0  0  0  0  0  0
  -13.7241   -2.1894  -23.1389 H   0  0  0  0  0  0  0  0  0  0  0  0
  -12.2810   -0.6406  -24.4582 H   0  0  0  0  0  0  0  0  0  0  0  0
  1  2  1  0
  2  3  1  0
  3  4  1  0
  4  5  1  0
  5  6  2  0
  5  7  1  0
  7  8  1  0
  8  9  2  0
  9 10  1  0
 10 11  2  0
 11 12  1  0
 12 13  2  0
 13 14  1  0
 14 15  2  0
 15 16  1  0
 16 17  2  0
  4 18  1  0
 18 19  2  0
 19 20  1  0
 20 21  1  0
 20 22  2  0
 22 23  1  0
 23 24  2  0
 24 25  1  0
 25 26  2  0
 25  2  1  0
 17  8  1  0
 24 18  1  0
 17 12  1  0
  1 27  1  0
  1 28  1  0
  1 29  1  0
  3 30  1  0
  3 31  1  0
  4 32  1  1
  7 33  1  0
  9 34  1  0
 11 35  1  0
 13 36  1  0
 14 37  1  0
 15 38  1  0
 16 39  1  0
 19 40  1  0
 22 41  1  0
 23 42  1  0
M  END
>  <RMSD>  (103) 
0.04069647317833469

$$$$

     RDKit          3D

 22 25  0  0  0  0  0  0  0  0999 V2000
    5.3242   -1.8081   22.1240 O   0  0  0  0  0  0  0  0  0  0  0  0
    6.4914   -1.4662   22.0555 C   0  0  0  0  0  0  0  0  0  0  0  0
    6.9027   -0.3589   21.0565 C   0  0  0  0  0  0  0  0  0  0  0  0
    5.8699   -0.1738   19.9708 C   0  0  0  0  0  0  0  0  0  0  0  0
    6.0295   -0.8077   18.7673 C   0  0  0  0  0  0  0  0  0  0  0  0
    5.2145   -0.6835   17.6873 N   0  0  0  0  0  0  0  0  0  0  0  0
    4.1585    0.0818   17.8284 C   0  0  0  0  0  0  0  0  0  0  0  0
    3.8176    0.7421   19.0416 C   0  0  0  0  0  0  0  0  0  0  0  0
    2.6281    1.5027   19.1720 C   0  0  0  0  0  0  0  0  0  0  0  0
    2.3162    2.1241   20.3506 C   0  0  0  0  0  0  0  0  0  0  0  0
    3.1911    2.0157   21.4519 C   0  0  0  0  0  0  0  0  0  0  0  0
    4.3509    1.2834   21.3531 C   0  0  0  0  0  0  0  0  0  0  0  0
    4.6936    0.6177   20.1458 C   0  0  0  0  0  0  0  0  0  0  0  0
    7.4672   -2.0571   22.8297 N   0  0  0  0  0  0  0  0  0  0  0  0
    7.2395   -3.3969   23.3783 C   0  0  0  0  0  0  0  0  0  0  0  0
    7.6139   -3.4705   24.8563 C   0  0  0  0  0  0  0  0  0  0  0  0
    8.9623   -2.8563   25.0686 C   0  0  0  0  0  0  0  0  0  0  0  0
    9.9880   -3.1506   26.4331 S   0  0  0  0  0  0  0  0  0  0  0  0
   11.1577   -2.0263   25.8431 C   0  0  0  0  0  0  0  0  0  0  0  0
   10.7751   -1.4659   24.6596 C   0  0  0  0  0  0  0  0  0  0  0  0
    9.5069   -1.9504   24.2141 C   0  0  0  0  0  0  0  0  0  0  0  0
    8.8148   -1.5203   22.9475 C   0  0  0  0  0  0  0  0  0  0  0  0
  1  2  2  0
  2  3  1  0
  3  4  1  0
  4  5  2  0
  5  6  1  0
  6  7  2  0
  7  8  1  0
  8  9  2  0
  9 10  1  0
 10 11  2  0
 11 12  1  0
 12 13  2  0
  2 14  1  0
 14 15  1  0
 15 16  1  0
 16 17  1  0
 17 18  1  0
 18 19  1  0
 19 20  2  0
 20 21  1  0
 21 22  1  0
 13  4  1  0
 22 14  1  0
 13  8  1  0
 21 17  2  0
M  END
>  <cnnaffinities>  (104) 
[5.09864, 5.09269, 5.05003, 5.10686, 5.23147]

>  <score>  (104) 
5.09864

>  <index>  (104) 
50

>  <Smiles>  (104) 
O=C(C(c1c(nc(c2c(c(c(c(c12)[H])[H])[H])[H])[H])[H])([H])[H])N1C(C(c2sc(c(c2C1([H])[H])[H])[H])([H])[H])([H])[H]

>  <h>  (104) 
<NA>

>  <Training>  (104) 
True

>  <Success>  (104) 
True

>  <enamine_searched>  (104) 
False

>  <enamine_id>  (104) 
nan

$$$$

     RDKit          3D

 67 73  0  0  0  0  0  0  0  0999 V2000
    5.8625    2.2413   29.3035 C   0  0  0  0  0  0  0  0  0  0  0  0
    5.7043    2.0590   27.8354 C   0  0  0  0  0  0  0  0  0  0  0  0
    4.6602    1.6491   27.1969 N   0  0  0  0  0  0  0  0  0  0  0  0
    5.0104    1.6151   25.8499 N   0  0  0  0  0  0  0  0  0  0  0  0
    6.2372    2.0015   25.7855 C   0  0  0  0  0  0  0  0  0  0  0  0
    7.1000    2.0722   24.5647 C   0  0  0  0  0  0  0  0  0  0  0  0
    7.9024    0.8850   24.3569 N   0  0  0  0  0  0  0  0  0  0  0  0
    7.2616   -0.3579   23.9723 C   0  0  0  0  0  0  0  0  0  0  0  0
    7.9939   -0.9621   22.7507 C   0  0  2  0  0  0  0  0  0  0  0  0
    7.6266   -0.0962   21.5160 C   0  0  0  0  0  0  0  0  0  0  0  0
    8.1494    0.9249   21.1267 O   0  0  0  0  0  0  0  0  0  0  0  0
    6.5302   -0.6799   20.9185 N   0  0  0  0  0  0  0  0  0  0  0  0
    5.8825   -0.0625   19.8223 C   0  0  0  0  0  0  0  0  0  0  0  0
    6.3103   -0.3381   18.5501 C   0  0  0  0  0  0  0  0  0  0  0  0
    5.7664    0.1850   17.4222 N   0  0  0  0  0  0  0  0  0  0  0  0
    4.7606    1.0140   17.5758 C   0  0  0  0  0  0  0  0  0  0  0  0
    4.2046    1.3816   18.8370 C   0  0  0  0  0  0  0  0  0  0  0  0
    3.1172    2.2906   18.9430 C   0  0  0  0  0  0  0  0  0  0  0  0
    2.6045    2.6172   20.1700 C   0  0  0  0  0  0  0  0  0  0  0  0
    3.1494    2.0486   21.3439 C   0  0  0  0  0  0  0  0  0  0  0  0
    4.2039    1.1695   21.2664 C   0  0  0  0  0  0  0  0  0  0  0  0
    4.7683    0.8219   20.0060 C   0  0  0  0  0  0  0  0  0  0  0  0
    6.1470   -1.9530   21.4951 C   0  0  0  0  0  0  0  0  0  0  0  0
    7.3944   -2.3317   22.3115 C   0  0  2  0  0  0  0  0  0  0  0  0
    7.1382   -3.3828   23.4094 C   0  0  0  0  0  0  0  0  0  0  0  0
    6.8699   -4.7165   22.9135 N   0  0  0  0  0  0  0  0  0  0  0  0
    5.6906   -5.1384   22.3995 C   0  0  0  0  0  0  0  0  0  0  0  0
    4.4553   -4.5396   22.7126 C   0  0  0  0  0  0  0  0  0  0  0  0
    3.3351   -5.0920   22.1249 C   0  0  0  0  0  0  0  0  0  0  0  0
    3.3937   -6.1376   21.2916 N   0  0  0  0  0  0  0  0  0  0  0  0
    4.6093   -6.6276   21.0891 C   0  0  0  0  0  0  0  0  0  0  0  0
    5.7630   -6.2074   21.5907 N   0  0  0  0  0  0  0  0  0  0  0  0
    9.4862   -0.9294   23.0085 C   0  0  0  0  0  0  0  0  0  0  0  0
   10.3522   -1.6372   22.1640 C   0  0  0  0  0  0  0  0  0  0  0  0
   11.7202   -1.5484   22.3431 C   0  0  0  0  0  0  0  0  0  0  0  0
   12.7667   -2.4606   21.2967 Cl  0  0  0  0  0  0  0  0  0  0  0  0
   12.2823   -0.7543   23.3419 C   0  0  0  0  0  0  0  0  0  0  0  0
   11.4364   -0.0328   24.1619 C   0  0  0  0  0  0  0  0  0  0  0  0
   10.0533   -0.1027   23.9905 C   0  0  0  0  0  0  0  0  0  0  0  0
    9.1968    0.8201   24.8080 C   0  0  0  0  0  0  0  0  0  0  0  0
    9.6193    1.4952   25.7286 O   0  0  0  0  0  0  0  0  0  0  0  0
    6.7466    2.3165   26.9998 O   0  0  0  0  0  0  0  0  0  0  0  0
    6.1163    1.2910   29.7850 H   0  0  0  0  0  0  0  0  0  0  0  0
    6.6409    2.9691   29.5380 H   0  0  0  0  0  0  0  0  0  0  0  0
    4.9063    2.5661   29.7144 H   0  0  0  0  0  0  0  0  0  0  0  0
    7.7624    2.9410   24.6106 H   0  0  0  0  0  0  0  0  0  0  0  0
    6.4336    2.1831   23.6994 H   0  0  0  0  0  0  0  0  0  0  0  0
    6.2152   -0.1361   23.7348 H   0  0  0  0  0  0  0  0  0  0  0  0
    7.2783   -1.0639   24.8197 H   0  0  0  0  0  0  0  0  0  0  0  0
    7.1399   -1.0271   18.4042 H   0  0  0  0  0  0  0  0  0  0  0  0
    4.3373    1.4429   16.6675 H   0  0  0  0  0  0  0  0  0  0  0  0
    2.7201    2.7255   18.0285 H   0  0  0  0  0  0  0  0  0  0  0  0
    1.7817    3.3238   20.2504 H   0  0  0  0  0  0  0  0  0  0  0  0
    2.7394    2.3195   22.3134 H   0  0  0  0  0  0  0  0  0  0  0  0
    4.6208    0.7355   22.1720 H   0  0  0  0  0  0  0  0  0  0  0  0
    5.2643   -1.8565   22.1494 H   0  0  0  0  0  0  0  0  0  0  0  0
    5.8882   -2.6747   20.7158 H   0  0  0  0  0  0  0  0  0  0  0  0
    8.1250   -2.7580   21.6181 H   0  0  0  0  0  0  0  0  0  0  0  0
    6.2972   -3.0743   24.0448 H   0  0  0  0  0  0  0  0  0  0  0  0
    8.0183   -3.4727   24.0510 H   0  0  0  0  0  0  0  0  0  0  0  0
    7.6464   -5.3065   22.6552 H   0  0  0  0  0  0  0  0  0  0  0  0
    4.3877   -3.7036   23.3998 H   0  0  0  0  0  0  0  0  0  0  0  0
    2.3352   -4.6977   22.3297 H   0  0  0  0  0  0  0  0  0  0  0  0
    4.6636   -7.4931   20.4383 H   0  0  0  0  0  0  0  0  0  0  0  0
    9.9650   -2.2358   21.3460 H   0  0  0  0  0  0  0  0  0  0  0  0
   13.3611   -0.6947   23.4429 H   0  0  0  0  0  0  0  0  0  0  0  0
   11.8259    0.6257   24.9309 H   0  0  0  0  0  0  0  0  0  0  0  0
  1  2  1  0
  2  3  2  0
  3  4  1  0
  4  5  2  0
  5  6  1  0
  6  7  1  0
  7  8  1  0
  9  8  1  1
  9 10  1  0
 10 11  2  0
 10 12  1  0
 12 13  1  0
 13 14  2  0
 14 15  1  0
 15 16  2  0
 16 17  1  0
 17 18  2  0
 18 19  1  0
 19 20  2  0
 20 21  1  0
 21 22  2  0
 12 23  1  0
 23 24  1  0
 24 25  1  0
 25 26  1  0
 26 27  1  0
 27 28  2  0
 28 29  1  0
 29 30  2  0
 30 31  1  0
 31 32  2  0
  9 33  1  0
 33 34  2  0
 34 35  1  0
 35 36  1  0
 35 37  2  0
 37 38  1  0
 38 39  2  0
 39 40  1  0
 40 41  2  0
  5 42  1  0
 42  2  1  0
 40  7  1  0
 24  9  1  0
 32 27  1  0
 39 33  1  0
 22 13  1  0
 22 17  1  0
  1 43  1  0
  1 44  1  0
  1 45  1  0
  6 46  1  0
  6 47  1  0
  8 48  1  0
  8 49  1  0
 14 50  1  0
 16 51  1  0
 18 52  1  0
 19 53  1  0
 20 54  1  0
 21 55  1  0
 23 56  1  0
 23 57  1  0
 24 58  1  6
 25 59  1  0
 25 60  1  0
 26 61  1  0
 28 62  1  0
 29 63  1  0
 31 64  1  0
 34 65  1  0
 37 66  1  0
 38 67  1  0
M  END
>  <RMSD>  (105) 
0.17643406754469879

$$$$

     RDKit          3D

 59 63  0  0  0  0  0  0  0  0999 V2000
   -6.8769    2.7400  -22.2044 C   0  0  0  0  0  0  0  0  0  0  0  0
   -6.4743    2.6672  -23.6740 C   0  0  0  0  0  0  0  0  0  0  0  0
   -7.1418    1.4897  -24.2042 N   0  0  0  0  0  0  0  0  0  0  0  0
   -6.7378    0.9167  -25.3579 C   0  0  0  0  0  0  0  0  0  0  0  0
   -5.9163    1.4174  -26.1126 O   0  0  0  0  0  0  0  0  0  0  0  0
   -7.3804   -0.4299  -25.7254 C   0  0  0  0  0  0  0  0  0  0  0  0
   -8.1465   -1.1056  -24.6875 N   0  0  0  0  0  0  0  0  0  0  0  0
   -7.5730   -2.2999  -24.0867 C   0  0  0  0  0  0  0  0  0  0  0  0
   -8.2158   -2.6326  -22.7138 C   0  0  2  0  0  0  0  0  0  0  0  0
   -7.8389   -1.5249  -21.6982 C   0  0  0  0  0  0  0  0  0  0  0  0
   -8.3285   -0.4147  -21.5853 O   0  0  0  0  0  0  0  0  0  0  0  0
   -6.7905   -1.9890  -20.9410 N   0  0  0  0  0  0  0  0  0  0  0  0
   -6.1564   -1.1621  -19.9850 C   0  0  0  0  0  0  0  0  0  0  0  0
   -6.5476   -1.2375  -18.6737 C   0  0  0  0  0  0  0  0  0  0  0  0
   -6.0238   -0.4902  -17.6732 N   0  0  0  0  0  0  0  0  0  0  0  0
   -5.0801    0.3617  -18.0076 C   0  0  0  0  0  0  0  0  0  0  0  0
   -4.5822    0.5408  -19.3307 C   0  0  0  0  0  0  0  0  0  0  0  0
   -3.5626    1.4847  -19.6320 C   0  0  0  0  0  0  0  0  0  0  0  0
   -3.1039    1.6196  -20.9150 C   0  0  0  0  0  0  0  0  0  0  0  0
   -3.6352    0.8282  -21.9572 C   0  0  0  0  0  0  0  0  0  0  0  0
   -4.6258   -0.0896  -21.6941 C   0  0  0  0  0  0  0  0  0  0  0  0
   -5.1257   -0.2527  -20.3679 C   0  0  0  0  0  0  0  0  0  0  0  0
   -6.3155   -3.3016  -21.3313 C   0  0  0  0  0  0  0  0  0  0  0  0
   -7.5382   -3.8720  -22.0612 C   0  0  2  0  0  0  0  0  0  0  0  0
   -7.2307   -5.0493  -22.9766 C   0  0  0  0  0  0  0  0  0  0  0  0
   -9.7156   -2.7135  -22.9145 C   0  0  0  0  0  0  0  0  0  0  0  0
  -10.5430   -3.5942  -22.2026 C   0  0  0  0  0  0  0  0  0  0  0  0
  -11.9162   -3.5272  -22.3644 C   0  0  0  0  0  0  0  0  0  0  0  0
  -12.9303   -4.6170  -21.4646 Cl  0  0  0  0  0  0  0  0  0  0  0  0
  -12.5167   -2.6037  -23.2188 C   0  0  0  0  0  0  0  0  0  0  0  0
  -11.7071   -1.7454  -23.9317 C   0  0  0  0  0  0  0  0  0  0  0  0
  -10.3196   -1.8082  -23.7992 C   0  0  0  0  0  0  0  0  0  0  0  0
   -9.5047   -0.8954  -24.6724 C   0  0  0  0  0  0  0  0  0  0  0  0
  -10.0235   -0.0173  -25.3427 O   0  0  0  0  0  0  0  0  0  0  0  0
   -7.9593    2.9113  -22.1691 H   0  0  0  0  0  0  0  0  0  0  0  0
   -6.3705    3.5176  -21.6148 H   0  0  0  0  0  0  0  0  0  0  0  0
   -6.6851    1.7560  -21.7482 H   0  0  0  0  0  0  0  0  0  0  0  0
   -6.7560    3.5565  -24.2512 H   0  0  0  0  0  0  0  0  0  0  0  0
   -5.3962    2.5448  -23.8256 H   0  0  0  0  0  0  0  0  0  0  0  0
   -7.6334    0.9183  -23.5242 H   0  0  0  0  0  0  0  0  0  0  0  0
   -6.5543   -1.0702  -26.0552 H   0  0  0  0  0  0  0  0  0  0  0  0
   -8.0315   -0.2473  -26.5905 H   0  0  0  0  0  0  0  0  0  0  0  0
   -6.4984   -2.1300  -23.9661 H   0  0  0  0  0  0  0  0  0  0  0  0
   -7.7097   -3.1592  -24.7587 H   0  0  0  0  0  0  0  0  0  0  0  0
   -7.3361   -1.9362  -18.4005 H   0  0  0  0  0  0  0  0  0  0  0  0
   -4.6473    0.9639  -17.2100 H   0  0  0  0  0  0  0  0  0  0  0  0
   -3.1612    2.0913  -18.8238 H   0  0  0  0  0  0  0  0  0  0  0  0
   -2.3211    2.3382  -21.1392 H   0  0  0  0  0  0  0  0  0  0  0  0
   -3.2627    0.9479  -22.9731 H   0  0  0  0  0  0  0  0  0  0  0  0
   -5.0415   -0.6811  -22.5063 H   0  0  0  0  0  0  0  0  0  0  0  0
   -6.0401   -3.8834  -20.4480 H   0  0  0  0  0  0  0  0  0  0  0  0
   -5.4305   -3.2568  -21.9925 H   0  0  0  0  0  0  0  0  0  0  0  0
   -8.2119   -4.2089  -21.2686 H   0  0  0  0  0  0  0  0  0  0  0  0
   -8.1212   -5.3611  -23.5324 H   0  0  0  0  0  0  0  0  0  0  0  0
   -6.4604   -4.7884  -23.7108 H   0  0  0  0  0  0  0  0  0  0  0  0
   -6.8697   -5.9091  -22.4019 H   0  0  0  0  0  0  0  0  0  0  0  0
  -10.1456   -4.3416  -21.5229 H   0  0  0  0  0  0  0  0  0  0  0  0
  -13.5972   -2.5681  -23.3173 H   0  0  0  0  0  0  0  0  0  0  0  0
  -12.1253   -1.0132  -24.6132 H   0  0  0  0  0  0  0  0  0  0  0  0
  1  2  1  0
  2  3  1  0
  3  4  1  0
  4  5  2  0
  4  6  1  0
  6  7  1  0
  7  8  1  0
  9  8  1  6
  9 10  1  0
 10 11  2  0
 10 12  1  0
 12 13  1  0
 13 14  2  0
 14 15  1  0
 15 16  2  0
 16 17  1  0
 17 18  2  0
 18 19  1  0
 19 20  2  0
 20 21  1  0
 21 22  2  0
 12 23  1  0
 23 24  1  0
 24 25  1  0
  9 26  1  0
 26 27  2  0
 27 28  1  0
 28 29  1  0
 28 30  2  0
 30 31  1  0
 31 32  2  0
 32 33  1  0
 33 34  2  0
 33  7  1  0
 24  9  1  0
 32 26  1  0
 22 13  1  0
 22 17  1  0
  1 35  1  0
  1 36  1  0
  1 37  1  0
  2 38  1  0
  2 39  1  0
  3 40  1  0
  6 41  1  0
  6 42  1  0
  8 43  1  0
  8 44  1  0
 14 45  1  0
 16 46  1  0
 18 47  1  0
 19 48  1  0
 20 49  1  0
 21 50  1  0
 23 51  1  0
 23 52  1  0
 24 53  1  1
 25 54  1  0
 25 55  1  0
 25 56  1  0
 27 57  1  0
 30 58  1  0
 31 59  1  0
M  END
>  <RMSD>  (106) 
0.06186514050902834

$$$$

     RDKit          3D

 66 71  0  0  0  0  0  0  0  0999 V2000
   -6.7713    2.6222  -23.2014 C   0  0  0  0  0  0  0  0  0  0  0  0
   -7.3422    1.4427  -23.8269 N   0  0  0  0  0  0  0  0  0  0  0  0
   -6.8497    1.0158  -25.0115 C   0  0  0  0  0  0  0  0  0  0  0  0
   -6.0292    1.6479  -25.6672 O   0  0  0  0  0  0  0  0  0  0  0  0
   -7.3588   -0.3214  -25.5671 C   0  0  0  0  0  0  0  0  0  0  0  0
   -8.1641   -1.1415  -24.6902 N   0  0  0  0  0  0  0  0  0  0  0  0
   -7.5739   -2.3302  -24.0936 C   0  0  0  0  0  0  0  0  0  0  0  0
   -8.2139   -2.6652  -22.7205 C   0  0  2  0  0  0  0  0  0  0  0  0
   -7.8531   -1.5516  -21.7065 C   0  0  0  0  0  0  0  0  0  0  0  0
   -8.3791   -0.4611  -21.5866 O   0  0  0  0  0  0  0  0  0  0  0  0
   -6.7941   -1.9909  -20.9487 N   0  0  0  0  0  0  0  0  0  0  0  0
   -6.1669   -1.1585  -19.9919 C   0  0  0  0  0  0  0  0  0  0  0  0
   -6.5463   -1.2397  -18.6775 C   0  0  0  0  0  0  0  0  0  0  0  0
   -6.0207   -0.4904  -17.6737 N   0  0  0  0  0  0  0  0  0  0  0  0
   -5.0789    0.3637  -18.0033 C   0  0  0  0  0  0  0  0  0  0  0  0
   -4.5865    0.5437  -19.3303 C   0  0  0  0  0  0  0  0  0  0  0  0
   -3.5647    1.4818  -19.6345 C   0  0  0  0  0  0  0  0  0  0  0  0
   -3.0999    1.6172  -20.9139 C   0  0  0  0  0  0  0  0  0  0  0  0
   -3.6298    0.8220  -21.9537 C   0  0  0  0  0  0  0  0  0  0  0  0
   -4.6279   -0.0830  -21.6898 C   0  0  0  0  0  0  0  0  0  0  0  0
   -5.1365   -0.2422  -20.3677 C   0  0  0  0  0  0  0  0  0  0  0  0
   -6.3221   -3.3113  -21.3036 C   0  0  0  0  0  0  0  0  0  0  0  0
   -7.5470   -3.8907  -22.0324 C   0  0  2  0  0  0  0  0  0  0  0  0
   -7.2542   -5.1018  -22.9338 C   0  0  0  0  0  0  0  0  0  0  0  0
   -6.8667   -6.3171  -22.2446 N   0  0  0  0  0  0  0  0  0  0  0  0
   -5.6220   -6.5445  -21.7473 C   0  0  0  0  0  0  0  0  0  0  0  0
   -4.4590   -5.9280  -22.2411 C   0  0  0  0  0  0  0  0  0  0  0  0
   -3.2759   -6.2603  -21.6149 C   0  0  0  0  0  0  0  0  0  0  0  0
   -3.2028   -7.0730  -20.5588 N   0  0  0  0  0  0  0  0  0  0  0  0
   -4.3632   -7.5911  -20.1876 C   0  0  0  0  0  0  0  0  0  0  0  0
   -5.5529   -7.4232  -20.7391 N   0  0  0  0  0  0  0  0  0  0  0  0
   -9.7128   -2.7399  -22.9284 C   0  0  0  0  0  0  0  0  0  0  0  0
  -10.5493   -3.6069  -22.2139 C   0  0  0  0  0  0  0  0  0  0  0  0
  -11.9236   -3.5276  -22.3620 C   0  0  0  0  0  0  0  0  0  0  0  0
  -12.9377   -4.6003  -21.4372 Cl  0  0  0  0  0  0  0  0  0  0  0  0
  -12.5235   -2.6029  -23.2147 C   0  0  0  0  0  0  0  0  0  0  0  0
  -11.7075   -1.7571  -23.9365 C   0  0  0  0  0  0  0  0  0  0  0  0
  -10.3207   -1.8349  -23.8111 C   0  0  0  0  0  0  0  0  0  0  0  0
   -9.5137   -0.9098  -24.6686 C   0  0  0  0  0  0  0  0  0  0  0  0
  -10.0336    0.0054  -25.2922 O   0  0  0  0  0  0  0  0  0  0  0  0
   -6.8714    3.5035  -23.8434 H   0  0  0  0  0  0  0  0  0  0  0  0
   -7.3029    2.8053  -22.2645 H   0  0  0  0  0  0  0  0  0  0  0  0
   -5.7055    2.4739  -22.9819 H   0  0  0  0  0  0  0  0  0  0  0  0
   -7.9293    0.8441  -23.2564 H   0  0  0  0  0  0  0  0  0  0  0  0
   -7.9376   -0.0921  -26.4666 H   0  0  0  0  0  0  0  0  0  0  0  0
   -6.4696   -0.8762  -25.8819 H   0  0  0  0  0  0  0  0  0  0  0  0
   -7.7065   -3.1914  -24.7610 H   0  0  0  0  0  0  0  0  0  0  0  0
   -6.4991   -2.1520  -23.9745 H   0  0  0  0  0  0  0  0  0  0  0  0
   -7.3335   -1.9378  -18.3960 H   0  0  0  0  0  0  0  0  0  0  0  0
   -4.6372    0.9622  -17.2047 H   0  0  0  0  0  0  0  0  0  0  0  0
   -3.1663    2.0872  -18.8270 H   0  0  0  0  0  0  0  0  0  0  0  0
   -2.3246    2.3409  -21.1468 H   0  0  0  0  0  0  0  0  0  0  0  0
   -3.2664    0.9500  -22.9710 H   0  0  0  0  0  0  0  0  0  0  0  0
   -5.0237   -0.6884  -22.4997 H   0  0  0  0  0  0  0  0  0  0  0  0
   -6.0277   -3.8660  -20.4091 H   0  0  0  0  0  0  0  0  0  0  0  0
   -5.4387   -3.2468  -21.9597 H   0  0  0  0  0  0  0  0  0  0  0  0
   -8.2358   -4.1991  -21.2409 H   0  0  0  0  0  0  0  0  0  0  0  0
   -8.1221   -5.3390  -23.5601 H   0  0  0  0  0  0  0  0  0  0  0  0
   -6.4420   -4.8559  -23.6206 H   0  0  0  0  0  0  0  0  0  0  0  0
   -7.5741   -6.8060  -21.7113 H   0  0  0  0  0  0  0  0  0  0  0  0
   -4.4844   -5.1977  -23.0372 H   0  0  0  0  0  0  0  0  0  0  0  0
   -2.3236   -5.8483  -21.9487 H   0  0  0  0  0  0  0  0  0  0  0  0
   -4.3495   -8.2141  -19.3064 H   0  0  0  0  0  0  0  0  0  0  0  0
  -10.1539   -4.3592  -21.5421 H   0  0  0  0  0  0  0  0  0  0  0  0
  -13.6051   -2.5653  -23.3001 H   0  0  0  0  0  0  0  0  0  0  0  0
  -12.1233   -1.0204  -24.6149 H   0  0  0  0  0  0  0  0  0  0  0  0
  1  2  1  0
  2  3  1  0
  3  4  2  0
  3  5  1  0
  5  6  1  0
  6  7  1  0
  8  7  1  6
  8  9  1  0
  9 10  2  0
  9 11  1  0
 11 12  1  0
 12 13  2  0
 13 14  1  0
 14 15  2  0
 15 16  1  0
 16 17  2  0
 17 18  1  0
 18 19  2  0
 19 20  1  0
 20 21  2  0
 11 22  1  0
 22 23  1  0
 23 24  1  0
 24 25  1  0
 25 26  1  0
 26 27  2  0
 27 28  1  0
 28 29  2  0
 29 30  1  0
 30 31  2  0
  8 32  1  0
 32 33  2  0
 33 34  1  0
 34 35  1  0
 34 36  2  0
 36 37  1  0
 37 38  2  0
 38 39  1  0
 39 40  2  0
 39  6  1  0
 23  8  1  0
 31 26  1  0
 38 32  1  0
 21 12  1  0
 21 16  1  0
  1 41  1  0
  1 42  1  0
  1 43  1  0
  2 44  1  0
  5 45  1  0
  5 46  1  0
  7 47  1  0
  7 48  1  0
 13 49  1  0
 15 50  1  0
 17 51  1  0
 18 52  1  0
 19 53  1  0
 20 54  1  0
 22 55  1  0
 22 56  1  0
 23 57  1  1
 24 58  1  0
 24 59  1  0
 25 60  1  0
 27 61  1  0
 28 62  1  0
 30 63  1  0
 33 64  1  0
 36 65  1  0
 37 66  1  0
M  END
>  <RMSD>  (107) 
0.061190582904894805

$$$$

     RDKit          3D

 77 84  0  0  0  0  0  0  0  0999 V2000
    9.6323    1.6494   25.6410 O   0  0  0  0  0  0  0  0  0  0  0  0
    9.1797    0.9419   24.7502 C   0  0  0  0  0  0  0  0  0  0  0  0
   10.0263   -0.0386   23.9886 C   0  0  0  0  0  0  0  0  0  0  0  0
   11.4071    0.0189   24.1751 C   0  0  0  0  0  0  0  0  0  0  0  0
   12.2598   -0.7142   23.3698 C   0  0  0  0  0  0  0  0  0  0  0  0
   11.7039   -1.5231   22.3769 C   0  0  0  0  0  0  0  0  0  0  0  0
   12.7636   -2.4230   21.3232 Cl  0  0  0  0  0  0  0  0  0  0  0  0
   10.3358   -1.6010   22.1822 C   0  0  0  0  0  0  0  0  0  0  0  0
    9.4641   -0.8755   23.0098 C   0  0  0  0  0  0  0  0  0  0  0  0
    7.9743   -0.9153   22.7461 C   0  0  1  0  0  0  0  0  0  0  0  0
    7.2451   -0.2636   23.9447 C   0  0  0  0  0  0  0  0  0  0  0  0
    7.8781    0.9891   24.3144 N   0  0  0  0  0  0  0  0  0  0  0  0
    7.1437    2.2407   24.3698 C   0  0  0  0  0  0  0  0  0  0  0  0
    7.1082    3.0075   23.0405 C   0  0  0  0  0  0  0  0  0  0  0  0
    6.6950    4.4434   23.2697 N   0  0  0  0  0  0  0  0  0  0  0  0
    6.5282    5.3767   22.0789 C   0  0  0  0  0  0  0  0  0  0  0  0
    5.0738    5.7269   22.4710 C   0  0  0  0  0  0  0  0  0  0  0  0
    3.9047    5.5847   21.4900 C   0  0  0  0  0  0  0  0  0  0  0  0
    3.5190    6.9458   21.6816 O   0  0  0  0  0  0  0  0  0  0  0  0
    4.5753    7.1683   22.6168 C   0  0  0  0  0  0  0  0  0  0  0  0
    5.2410    4.7631   23.6667 C   0  0  0  0  0  0  0  0  0  0  0  0
    7.6284   -0.0979   21.4789 C   0  0  0  0  0  0  0  0  0  0  0  0
    8.1947    0.8812   21.0391 O   0  0  0  0  0  0  0  0  0  0  0  0
    6.5129   -0.6712   20.9166 N   0  0  0  0  0  0  0  0  0  0  0  0
    5.8656   -0.0727   19.8131 C   0  0  0  0  0  0  0  0  0  0  0  0
    6.3115   -0.3393   18.5460 C   0  0  0  0  0  0  0  0  0  0  0  0
    5.7758    0.1918   17.4187 N   0  0  0  0  0  0  0  0  0  0  0  0
    4.7645    1.0142   17.5742 C   0  0  0  0  0  0  0  0  0  0  0  0
    4.2076    1.3791   18.8341 C   0  0  0  0  0  0  0  0  0  0  0  0
    3.1223    2.2848   18.9464 C   0  0  0  0  0  0  0  0  0  0  0  0
    2.6121    2.6173   20.1717 C   0  0  0  0  0  0  0  0  0  0  0  0
    3.1551    2.0532   21.3451 C   0  0  0  0  0  0  0  0  0  0  0  0
    4.2041    1.1681   21.2650 C   0  0  0  0  0  0  0  0  0  0  0  0
    4.7659    0.8170   20.0045 C   0  0  0  0  0  0  0  0  0  0  0  0
    6.1343   -1.9388   21.5056 C   0  0  0  0  0  0  0  0  0  0  0  0
    7.3796   -2.3059   22.3313 C   0  0  2  0  0  0  0  0  0  0  0  0
    7.1215   -3.3624   23.4233 C   0  0  0  0  0  0  0  0  0  0  0  0
    6.7900   -4.6715   22.8904 N   0  0  0  0  0  0  0  0  0  0  0  0
    5.5329   -5.0950   22.6077 C   0  0  0  0  0  0  0  0  0  0  0  0
    5.4587   -6.2922   21.9842 N   0  0  0  0  0  0  0  0  0  0  0  0
    4.2405   -6.7119   21.6913 C   0  0  0  0  0  0  0  0  0  0  0  0
    3.0898   -5.9896   22.0030 C   0  0  0  0  0  0  0  0  0  0  0  0
    3.2883   -4.7800   22.6532 C   0  0  0  0  0  0  0  0  0  0  0  0
    4.4988   -4.3138   22.9630 N   0  0  0  0  0  0  0  0  0  0  0  0
   11.7857    0.6712   24.9558 H   0  0  0  0  0  0  0  0  0  0  0  0
   13.3388   -0.6577   23.4848 H   0  0  0  0  0  0  0  0  0  0  0  0
    9.9675   -2.2182   21.3675 H   0  0  0  0  0  0  0  0  0  0  0  0
    6.1913   -0.0789   23.7090 H   0  0  0  0  0  0  0  0  0  0  0  0
    7.2922   -0.9601   24.7923 H   0  0  0  0  0  0  0  0  0  0  0  0
    7.6232    2.8243   25.1611 H   0  0  0  0  0  0  0  0  0  0  0  0
    6.1163    2.0211   24.6801 H   0  0  0  0  0  0  0  0  0  0  0  0
    8.0815    3.0113   22.5500 H   0  0  0  0  0  0  0  0  0  0  0  0
    6.3861    2.5612   22.3466 H   0  0  0  0  0  0  0  0  0  0  0  0
    7.3752    4.8532   23.9331 H   0  0  0  0  0  0  0  0  0  0  0  0
    7.2360    6.2022   22.1324 H   0  0  0  0  0  0  0  0  0  0  0  0
    6.6388    4.8372   21.1393 H   0  0  0  0  0  0  0  0  0  0  0  0
    3.1051    4.9021   21.8009 H   0  0  0  0  0  0  0  0  0  0  0  0
    4.1843    5.3788   20.4481 H   0  0  0  0  0  0  0  0  0  0  0  0
    5.2586    7.9529   22.2652 H   0  0  0  0  0  0  0  0  0  0  0  0
    4.1817    7.4421   23.6052 H   0  0  0  0  0  0  0  0  0  0  0  0
    4.6228    3.8695   23.6278 H   0  0  0  0  0  0  0  0  0  0  0  0
    5.2023    5.2182   24.6529 H   0  0  0  0  0  0  0  0  0  0  0  0
    7.1537   -1.0153   18.4083 H   0  0  0  0  0  0  0  0  0  0  0  0
    4.3226    1.4390   16.6717 H   0  0  0  0  0  0  0  0  0  0  0  0
    2.7196    2.7137   18.0357 H   0  0  0  0  0  0  0  0  0  0  0  0
    1.7933    3.3295   20.2491 H   0  0  0  0  0  0  0  0  0  0  0  0
    2.7423    2.3179   22.3147 H   0  0  0  0  0  0  0  0  0  0  0  0
    4.6081    0.7408   22.1763 H   0  0  0  0  0  0  0  0  0  0  0  0
    5.8860   -2.6676   20.7283 H   0  0  0  0  0  0  0  0  0  0  0  0
    5.2501   -1.8262   22.1498 H   0  0  0  0  0  0  0  0  0  0  0  0
    8.1114   -2.7344   21.6392 H   0  0  0  0  0  0  0  0  0  0  0  0
    6.2823   -3.0418   24.0467 H   0  0  0  0  0  0  0  0  0  0  0  0
    8.0096   -3.4657   24.0609 H   0  0  0  0  0  0  0  0  0  0  0  0
    7.5203   -5.2991   22.5945 H   0  0  0  0  0  0  0  0  0  0  0  0
    4.2002   -7.6758   21.1808 H   0  0  0  0  0  0  0  0  0  0  0  0
    2.1038   -6.3637   21.7562 H   0  0  0  0  0  0  0  0  0  0  0  0
    2.4458   -4.1500   22.9456 H   0  0  0  0  0  0  0  0  0  0  0  0
  1  2  2  0
  2  3  1  0
  3  4  2  0
  4  5  1  0
  5  6  2  0
  6  7  1  0
  6  8  1  0
  8  9  2  0
  9 10  1  0
 10 11  1  1
 11 12  1  0
 12 13  1  0
 13 14  1  0
 14 15  1  0
 15 16  1  0
 16 17  1  0
 17 18  1  0
 18 19  1  0
 19 20  1  0
 17 21  1  0
 10 22  1  0
 22 23  2  0
 22 24  1  0
 24 25  1  0
 25 26  2  0
 26 27  1  0
 27 28  2  0
 28 29  1  0
 29 30  2  0
 30 31  1  0
 31 32  2  0
 32 33  1  0
 33 34  2  0
 24 35  1  0
 35 36  1  0
 36 37  1  0
 37 38  1  0
 38 39  1  0
 39 40  2  0
 40 41  1  0
 41 42  2  0
 42 43  1  0
 43 44  2  0
 12  2  1  0
 21 15  1  0
 34 25  1  0
 44 39  1  0
  9  3  1  0
 36 10  1  0
 20 17  1  0
 34 29  1  0
  4 45  1  0
  5 46  1  0
  8 47  1  0
 11 48  1  0
 11 49  1  0
 13 50  1  0
 13 51  1  0
 14 52  1  0
 14 53  1  0
 15 54  1  0
 16 55  1  0
 16 56  1  0
 18 57  1  0
 18 58  1  0
 20 59  1  0
 20 60  1  0
 21 61  1  0
 21 62  1  0
 26 63  1  0
 28 64  1  0
 30 65  1  0
 31 66  1  0
 32 67  1  0
 33 68  1  0
 35 69  1  0
 35 70  1  0
 36 71  1  6
 37 72  1  0
 37 73  1  0
 38 74  1  0
 41 75  1  0
 42 76  1  0
 43 77  1  0
M  CHG  1  15   1
M  END
>  <RMSD>  (108) 
0.17822648388404191

$$$$

     RDKit          3D

 40 43  0  0  0  0  0  0  0  0999 V2000
   -9.5057   -2.7626  -23.2327 C   0  0  0  0  0  0  0  0  0  0  0  0
   -8.3733   -2.7467  -22.3275 N   0  0  0  0  0  0  0  0  0  0  0  0
   -7.4414   -3.7114  -22.0578 C   0  0  0  0  0  0  0  0  0  0  0  0
   -7.3007   -4.9460  -22.8892 C   0  0  0  0  0  0  0  0  0  0  0  0
   -6.5000   -4.5971  -24.1353 C   0  0  0  0  0  0  0  0  0  0  0  0
   -5.1315   -4.3618  -24.0019 C   0  0  0  0  0  0  0  0  0  0  0  0
   -4.3896   -3.9056  -25.0833 C   0  0  0  0  0  0  0  0  0  0  0  0
   -5.0132   -3.6703  -26.3056 C   0  0  0  0  0  0  0  0  0  0  0  0
   -6.3780   -3.9044  -26.4481 C   0  0  0  0  0  0  0  0  0  0  0  0
   -7.1189   -4.3663  -25.3624 C   0  0  0  0  0  0  0  0  0  0  0  0
   -6.5557   -3.3103  -21.1916 N   0  0  0  0  0  0  0  0  0  0  0  0
   -6.8856   -2.0120  -20.9157 N   0  0  0  0  0  0  0  0  0  0  0  0
   -6.1621   -1.1890  -19.9946 C   0  0  0  0  0  0  0  0  0  0  0  0
   -6.5384   -1.2480  -18.6804 C   0  0  0  0  0  0  0  0  0  0  0  0
   -6.0152   -0.4822  -17.6933 N   0  0  0  0  0  0  0  0  0  0  0  0
   -5.0737    0.3664  -18.0297 C   0  0  0  0  0  0  0  0  0  0  0  0
   -4.5703    0.5369  -19.3461 C   0  0  0  0  0  0  0  0  0  0  0  0
   -3.5520    1.4866  -19.6311 C   0  0  0  0  0  0  0  0  0  0  0  0
   -3.0880    1.6308  -20.9091 C   0  0  0  0  0  0  0  0  0  0  0  0
   -3.6289    0.8348  -21.9450 C   0  0  0  0  0  0  0  0  0  0  0  0
   -4.6195   -0.0866  -21.6961 C   0  0  0  0  0  0  0  0  0  0  0  0
   -5.1210   -0.2649  -20.3774 C   0  0  0  0  0  0  0  0  0  0  0  0
   -8.0340   -1.6207  -21.5844 C   0  0  0  0  0  0  0  0  0  0  0  0
   -8.6156   -0.5607  -21.5149 O   0  0  0  0  0  0  0  0  0  0  0  0
   -9.9558   -3.7570  -23.2707 H   0  0  0  0  0  0  0  0  0  0  0  0
   -9.2156   -2.4444  -24.2395 H   0  0  0  0  0  0  0  0  0  0  0  0
  -10.2401   -2.0521  -22.8509 H   0  0  0  0  0  0  0  0  0  0  0  0
   -8.2820   -5.3568  -23.1518 H   0  0  0  0  0  0  0  0  0  0  0  0
   -6.7787   -5.6810  -22.2707 H   0  0  0  0  0  0  0  0  0  0  0  0
   -4.6732   -4.5106  -23.0248 H   0  0  0  0  0  0  0  0  0  0  0  0
   -3.3290   -3.7151  -24.9604 H   0  0  0  0  0  0  0  0  0  0  0  0
   -4.4338   -3.2996  -27.1444 H   0  0  0  0  0  0  0  0  0  0  0  0
   -6.8710   -3.7224  -27.3972 H   0  0  0  0  0  0  0  0  0  0  0  0
   -8.1907   -4.5395  -25.4611 H   0  0  0  0  0  0  0  0  0  0  0  0
   -7.3259   -1.9339  -18.3819 H   0  0  0  0  0  0  0  0  0  0  0  0
   -4.6618    0.9699  -17.2238 H   0  0  0  0  0  0  0  0  0  0  0  0
   -3.1637    2.0924  -18.8158 H   0  0  0  0  0  0  0  0  0  0  0  0
   -2.3124    2.3600  -21.1354 H   0  0  0  0  0  0  0  0  0  0  0  0
   -3.2524    0.9653  -22.9557 H   0  0  0  0  0  0  0  0  0  0  0  0
   -5.0328   -0.6887  -22.4992 H   0  0  0  0  0  0  0  0  0  0  0  0
  1  2  1  0
  2  3  1  0
  3  4  1  0
  4  5  1  0
  5  6  2  0
  6  7  1  0
  7  8  2  0
  8  9  1  0
  9 10  2  0
  3 11  2  0
 11 12  1  0
 12 13  1  0
 13 14  2  0
 14 15  1  0
 15 16  2  0
 16 17  1  0
 17 18  2  0
 18 19  1  0
 19 20  2  0
 20 21  1  0
 21 22  2  0
 12 23  1  0
 23 24  2  0
 23  2  1  0
 10  5  1  0
 22 13  1  0
 22 17  1  0
  1 25  1  0
  1 26  1  0
  1 27  1  0
  4 28  1  0
  4 29  1  0
  6 30  1  0
  7 31  1  0
  8 32  1  0
  9 33  1  0
 10 34  1  0
 14 35  1  0
 16 36  1  0
 18 37  1  0
 19 38  1  0
 20 39  1  0
 21 40  1  0
M  END
>  <RMSD>  (109) 
0.0646685763223184

$$$$

     RDKit          3D

 66 71  0  0  0  0  0  0  0  0999 V2000
   -6.7603    2.6549  -23.2097 C   0  0  0  0  0  0  0  0  0  0  0  0
   -7.3259    1.4823  -23.8506 N   0  0  0  0  0  0  0  0  0  0  0  0
   -6.8390    1.0556  -25.0352 C   0  0  0  0  0  0  0  0  0  0  0  0
   -6.0174    1.6843  -25.6878 O   0  0  0  0  0  0  0  0  0  0  0  0
   -7.3454   -0.2951  -25.5708 C   0  0  0  0  0  0  0  0  0  0  0  0
   -8.1594   -1.1025  -24.6890 N   0  0  0  0  0  0  0  0  0  0  0  0
   -7.5808   -2.3037  -24.1181 C   0  0  0  0  0  0  0  0  0  0  0  0
   -8.2291   -2.6557  -22.7612 C   0  0  2  0  0  0  0  0  0  0  0  0
   -7.8706   -1.5554  -21.7185 C   0  0  0  0  0  0  0  0  0  0  0  0
   -8.3900   -0.4648  -21.5785 O   0  0  0  0  0  0  0  0  0  0  0  0
   -6.8124   -2.0049  -20.9615 N   0  0  0  0  0  0  0  0  0  0  0  0
   -6.1787   -1.1637  -20.0026 C   0  0  0  0  0  0  0  0  0  0  0  0
   -6.5501   -1.2343  -18.6854 C   0  0  0  0  0  0  0  0  0  0  0  0
   -6.0107   -0.4921  -17.6821 N   0  0  0  0  0  0  0  0  0  0  0  0
   -5.0681    0.3609  -18.0057 C   0  0  0  0  0  0  0  0  0  0  0  0
   -4.5786    0.5450  -19.3328 C   0  0  0  0  0  0  0  0  0  0  0  0
   -3.5538    1.4836  -19.6336 C   0  0  0  0  0  0  0  0  0  0  0  0
   -3.0890    1.6193  -20.9150 C   0  0  0  0  0  0  0  0  0  0  0  0
   -3.6239    0.8198  -21.9506 C   0  0  0  0  0  0  0  0  0  0  0  0
   -4.6237   -0.0858  -21.6835 C   0  0  0  0  0  0  0  0  0  0  0  0
   -5.1409   -0.2423  -20.3677 C   0  0  0  0  0  0  0  0  0  0  0  0
   -6.3475   -3.3261  -21.3420 C   0  0  0  0  0  0  0  0  0  0  0  0
   -7.5504   -3.9025  -22.1190 C   0  0  2  0  0  0  0  0  0  0  0  0
   -7.1208   -5.0551  -23.0416 C   0  0  0  0  0  0  0  0  0  0  0  0
   -8.2120   -5.6587  -23.7803 N   0  0  0  0  0  0  0  0  0  0  0  0
   -8.0223   -6.6776  -24.6755 C   0  0  0  0  0  0  0  0  0  0  0  0
   -6.7497   -7.2196  -24.9901 C   0  0  0  0  0  0  0  0  0  0  0  0
   -6.5919   -8.1421  -25.9277 N   0  0  0  0  0  0  0  0  0  0  0  0
   -7.6890   -8.5656  -26.5644 C   0  0  0  0  0  0  0  0  0  0  0  0
   -8.9405   -8.0920  -26.2100 C   0  0  0  0  0  0  0  0  0  0  0  0
   -9.1135   -7.1589  -25.2717 N   0  0  0  0  0  0  0  0  0  0  0  0
   -9.7288   -2.7222  -22.9666 C   0  0  0  0  0  0  0  0  0  0  0  0
  -10.5543   -3.5904  -22.2424 C   0  0  0  0  0  0  0  0  0  0  0  0
  -11.9325   -3.5101  -22.3691 C   0  0  0  0  0  0  0  0  0  0  0  0
  -12.9483   -4.5700  -21.4293 Cl  0  0  0  0  0  0  0  0  0  0  0  0
  -12.5299   -2.5869  -23.2275 C   0  0  0  0  0  0  0  0  0  0  0  0
  -11.7187   -1.7406  -23.9584 C   0  0  0  0  0  0  0  0  0  0  0  0
  -10.3329   -1.8064  -23.8402 C   0  0  0  0  0  0  0  0  0  0  0  0
   -9.5061   -0.8591  -24.6628 C   0  0  0  0  0  0  0  0  0  0  0  0
   -9.9905    0.0953  -25.2594 O   0  0  0  0  0  0  0  0  0  0  0  0
   -6.8610    3.5430  -23.8437 H   0  0  0  0  0  0  0  0  0  0  0  0
   -7.2973    2.8079  -22.2702 H   0  0  0  0  0  0  0  0  0  0  0  0
   -5.6938    2.5047  -22.9941 H   0  0  0  0  0  0  0  0  0  0  0  0
   -8.0380    0.9564  -23.3617 H   0  0  0  0  0  0  0  0  0  0  0  0
   -7.9012   -0.0876  -26.4917 H   0  0  0  0  0  0  0  0  0  0  0  0
   -6.4445   -0.8557  -25.8359 H   0  0  0  0  0  0  0  0  0  0  0  0
   -6.5102   -2.1237  -23.9719 H   0  0  0  0  0  0  0  0  0  0  0  0
   -7.7077   -3.1569  -24.7980 H   0  0  0  0  0  0  0  0  0  0  0  0
   -7.3285   -1.9330  -18.3869 H   0  0  0  0  0  0  0  0  0  0  0  0
   -4.6528    0.9598  -17.1933 H   0  0  0  0  0  0  0  0  0  0  0  0
   -3.1659    2.0948  -18.8224 H   0  0  0  0  0  0  0  0  0  0  0  0
   -2.3243    2.3555  -21.1516 H   0  0  0  0  0  0  0  0  0  0  0  0
   -3.2712    0.9508  -22.9723 H   0  0  0  0  0  0  0  0  0  0  0  0
   -5.0311   -0.6956  -22.4833 H   0  0  0  0  0  0  0  0  0  0  0  0
   -5.4511   -3.2692  -21.9827 H   0  0  0  0  0  0  0  0  0  0  0  0
   -6.0683   -3.8964  -20.4515 H   0  0  0  0  0  0  0  0  0  0  0  0
   -8.2690   -4.2844  -21.3866 H   0  0  0  0  0  0  0  0  0  0  0  0
   -6.6343   -5.8432  -22.4409 H   0  0  0  0  0  0  0  0  0  0  0  0
   -6.3551   -4.6956  -23.7574 H   0  0  0  0  0  0  0  0  0  0  0  0
   -9.1847   -5.3821  -23.6963 H   0  0  0  0  0  0  0  0  0  0  0  0
   -5.8491   -6.8846  -24.4795 H   0  0  0  0  0  0  0  0  0  0  0  0
   -7.5475   -9.2779  -27.3732 H   0  0  0  0  0  0  0  0  0  0  0  0
   -9.8349   -8.4575  -26.7184 H   0  0  0  0  0  0  0  0  0  0  0  0
  -10.1339   -4.3216  -21.5620 H   0  0  0  0  0  0  0  0  0  0  0  0
  -13.6088   -2.5381  -23.3121 H   0  0  0  0  0  0  0  0  0  0  0  0
  -12.1139   -0.9926  -24.6354 H   0  0  0  0  0  0  0  0  0  0  0  0
  1  2  1  0
  2  3  1  0
  3  4  2  0
  3  5  1  0
  5  6  1  0
  6  7  1  0
  8  7  1  6
  8  9  1  0
  9 10  2  0
  9 11  1  0
 11 12  1  0
 12 13  2  0
 13 14  1  0
 14 15  2  0
 15 16  1  0
 16 17  2  0
 17 18  1  0
 18 19  2  0
 19 20  1  0
 20 21  2  0
 11 22  1  0
 22 23  1  0
 23 24  1  0
 24 25  1  0
 25 26  1  0
 26 27  2  0
 27 28  1  0
 28 29  2  0
 29 30  1  0
 30 31  2  0
  8 32  1  0
 32 33  2  0
 33 34  1  0
 34 35  1  0
 34 36  2  0
 36 37  1  0
 37 38  2  0
 38 39  1  0
 39 40  2  0
 39  6  1  0
 23  8  1  0
 31 26  1  0
 38 32  1  0
 21 12  1  0
 21 16  1  0
  1 41  1  0
  1 42  1  0
  1 43  1  0
  2 44  1  0
  5 45  1  0
  5 46  1  0
  7 47  1  0
  7 48  1  0
 13 49  1  0
 15 50  1  0
 17 51  1  0
 18 52  1  0
 19 53  1  0
 20 54  1  0
 22 55  1  0
 22 56  1  0
 23 57  1  1
 24 58  1  0
 24 59  1  0
 25 60  1  0
 27 61  1  0
 29 62  1  0
 30 63  1  0
 33 64  1  0
 36 65  1  0
 37 66  1  0
M  END
>  <RMSD>  (110) 
0.0624668385126598

$$$$

     RDKit          3D

 56 61  0  0  0  0  0  0  0  0999 V2000
    5.9449    4.6284   21.2496 C   0  0  0  0  0  0  0  0  0  0  0  0
    5.7733    4.0980   22.5846 N   0  0  0  0  0  0  0  0  0  0  0  0
    4.7224    4.3080   23.4096 C   0  0  0  0  0  0  0  0  0  0  0  0
    4.9109    3.5007   24.5075 C   0  0  0  0  0  0  0  0  0  0  0  0
    6.1221    2.8222   24.2424 C   0  0  0  0  0  0  0  0  0  0  0  0
    6.7752    1.8223   25.1586 C   0  0  0  0  0  0  0  0  0  0  0  0
    7.6954    0.9188   24.5090 N   0  0  0  0  0  0  0  0  0  0  0  0
    7.2139   -0.3897   24.1100 C   0  0  0  0  0  0  0  0  0  0  0  0
    7.9316   -0.9065   22.8343 C   0  0  1  0  0  0  0  0  0  0  0  0
    7.3543   -2.2682   22.4012 C   0  0  0  0  0  0  0  0  0  0  0  0
    6.1327   -1.9297   21.5375 C   0  0  0  0  0  0  0  0  0  0  0  0
    6.5297   -0.6676   20.9389 N   0  0  0  0  0  0  0  0  0  0  0  0
    5.8819   -0.0606   19.8300 C   0  0  0  0  0  0  0  0  0  0  0  0
    6.3053   -0.3467   18.5570 C   0  0  0  0  0  0  0  0  0  0  0  0
    5.7640    0.1730   17.4280 N   0  0  0  0  0  0  0  0  0  0  0  0
    4.7617    1.0118   17.5697 C   0  0  0  0  0  0  0  0  0  0  0  0
    4.2043    1.3852   18.8273 C   0  0  0  0  0  0  0  0  0  0  0  0
    3.1188    2.3001   18.9424 C   0  0  0  0  0  0  0  0  0  0  0  0
    2.6085    2.6226   20.1717 C   0  0  0  0  0  0  0  0  0  0  0  0
    3.1520    2.0463   21.3426 C   0  0  0  0  0  0  0  0  0  0  0  0
    4.2123    1.1767   21.2602 C   0  0  0  0  0  0  0  0  0  0  0  0
    4.7703    0.8261   20.0008 C   0  0  0  0  0  0  0  0  0  0  0  0
    7.5506   -0.0303   21.6134 C   0  0  0  0  0  0  0  0  0  0  0  0
    8.0345    1.0228   21.2736 O   0  0  0  0  0  0  0  0  0  0  0  0
    9.4182   -0.8423   23.1065 C   0  0  0  0  0  0  0  0  0  0  0  0
   10.3182   -1.7662   22.5678 C   0  0  0  0  0  0  0  0  0  0  0  0
   11.6805   -1.5750   22.7285 C   0  0  0  0  0  0  0  0  0  0  0  0
   12.7759   -2.7162   22.0020 Cl  0  0  0  0  0  0  0  0  0  0  0  0
   12.1909   -0.4793   23.4289 C   0  0  0  0  0  0  0  0  0  0  0  0
   11.3010    0.4292   23.9732 C   0  0  0  0  0  0  0  0  0  0  0  0
    9.9253    0.2541   23.8218 C   0  0  0  0  0  0  0  0  0  0  0  0
    9.0137    1.2753   24.4378 C   0  0  0  0  0  0  0  0  0  0  0  0
    9.4182    2.3494   24.8613 O   0  0  0  0  0  0  0  0  0  0  0  0
    6.6235    3.1824   23.0671 N   0  0  0  0  0  0  0  0  0  0  0  0
    7.0099    4.7001   21.0248 H   0  0  0  0  0  0  0  0  0  0  0  0
    5.4298    4.0068   20.5049 H   0  0  0  0  0  0  0  0  0  0  0  0
    5.5169    5.6299   21.2212 H   0  0  0  0  0  0  0  0  0  0  0  0
    3.9220    4.9843   23.1295 H   0  0  0  0  0  0  0  0  0  0  0  0
    4.2731    3.3938   25.3755 H   0  0  0  0  0  0  0  0  0  0  0  0
    5.9969    1.2265   25.6473 H   0  0  0  0  0  0  0  0  0  0  0  0
    7.3148    2.3330   25.9605 H   0  0  0  0  0  0  0  0  0  0  0  0
    7.3663   -1.1050   24.9329 H   0  0  0  0  0  0  0  0  0  0  0  0
    6.1373   -0.3139   23.9196 H   0  0  0  0  0  0  0  0  0  0  0  0
    7.1273   -2.9181   23.2481 H   0  0  0  0  0  0  0  0  0  0  0  0
    8.0712   -2.8078   21.7842 H   0  0  0  0  0  0  0  0  0  0  0  0
    5.9463   -2.6677   20.7533 H   0  0  0  0  0  0  0  0  0  0  0  0
    5.2196   -1.8568   22.1525 H   0  0  0  0  0  0  0  0  0  0  0  0
    7.1383   -1.0285   18.4045 H   0  0  0  0  0  0  0  0  0  0  0  0
    4.3348    1.4375   16.6600 H   0  0  0  0  0  0  0  0  0  0  0  0
    2.7093    2.7427   18.0361 H   0  0  0  0  0  0  0  0  0  0  0  0
    1.7811    3.3256   20.2523 H   0  0  0  0  0  0  0  0  0  0  0  0
    2.7296    2.2948   22.3130 H   0  0  0  0  0  0  0  0  0  0  0  0
    4.6348    0.7288   22.1566 H   0  0  0  0  0  0  0  0  0  0  0  0
    9.9649   -2.6387   22.0266 H   0  0  0  0  0  0  0  0  0  0  0  0
   13.2659   -0.3448   23.5196 H   0  0  0  0  0  0  0  0  0  0  0  0
   11.6561    1.2947   24.5232 H   0  0  0  0  0  0  0  0  0  0  0  0
  1  2  1  0
  2  3  1  0
  3  4  2  0
  4  5  1  0
  5  6  1  0
  6  7  1  0
  7  8  1  0
  9  8  1  1
  9 10  1  0
 10 11  1  0
 11 12  1  0
 12 13  1  0
 13 14  2  0
 14 15  1  0
 15 16  2  0
 16 17  1  0
 17 18  2  0
 18 19  1  0
 19 20  2  0
 20 21  1  0
 21 22  2  0
 12 23  1  0
 23 24  2  0
  9 25  1  0
 25 26  2  0
 26 27  1  0
 27 28  1  0
 27 29  2  0
 29 30  1  0
 30 31  2  0
 31 32  1  0
 32 33  2  0
  5 34  2  0
 34  2  1  0
 32  7  1  0
 23  9  1  0
 31 25  1  0
 22 13  1  0
 22 17  1  0
  1 35  1  0
  1 36  1  0
  1 37  1  0
  3 38  1  0
  4 39  1  0
  6 40  1  0
  6 41  1  0
  8 42  1  0
  8 43  1  0
 10 44  1  0
 10 45  1  0
 11 46  1  0
 11 47  1  0
 14 48  1  0
 16 49  1  0
 18 50  1  0
 19 51  1  0
 20 52  1  0
 21 53  1  0
 26 54  1  0
 29 55  1  0
 30 56  1  0
M  END
>  <RMSD>  (111) 
0.17367346688066929

$$$$

     RDKit          3D

 61 66  0  0  0  0  0  0  0  0999 V2000
   -6.6789   -7.2425  -23.0842 C   0  0  0  0  0  0  0  0  0  0  0  0
   -6.9557   -6.1403  -22.2610 O   0  0  0  0  0  0  0  0  0  0  0  0
   -7.3700   -5.0185  -22.9979 C   0  0  0  0  0  0  0  0  0  0  0  0
   -7.6266   -3.8780  -22.0287 C   0  0  1  0  0  0  0  0  0  0  0  0
   -6.3605   -3.3208  -21.3532 C   0  0  0  0  0  0  0  0  0  0  0  0
   -6.7937   -1.9896  -20.9568 N   0  0  0  0  0  0  0  0  0  0  0  0
   -6.1588   -1.1726  -19.9911 C   0  0  0  0  0  0  0  0  0  0  0  0
   -6.5541   -1.2345  -18.6792 C   0  0  0  0  0  0  0  0  0  0  0  0
   -6.0199   -0.4878  -17.6803 N   0  0  0  0  0  0  0  0  0  0  0  0
   -5.0695    0.3563  -18.0063 C   0  0  0  0  0  0  0  0  0  0  0  0
   -4.5704    0.5286  -19.3298 C   0  0  0  0  0  0  0  0  0  0  0  0
   -3.5606    1.4810  -19.6326 C   0  0  0  0  0  0  0  0  0  0  0  0
   -3.1043    1.6240  -20.9149 C   0  0  0  0  0  0  0  0  0  0  0  0
   -3.6354    0.8273  -21.9527 C   0  0  0  0  0  0  0  0  0  0  0  0
   -4.6213   -0.0931  -21.6872 C   0  0  0  0  0  0  0  0  0  0  0  0
   -5.1177   -0.2661  -20.3628 C   0  0  0  0  0  0  0  0  0  0  0  0
   -7.9861   -1.5937  -21.5317 C   0  0  0  0  0  0  0  0  0  0  0  0
   -8.6214   -0.6184  -21.1995 O   0  0  0  0  0  0  0  0  0  0  0  0
   -8.3278   -2.6282  -22.6311 C   0  0  1  0  0  0  0  0  0  0  0  0
   -7.6707   -2.2380  -23.9850 C   0  0  0  0  0  0  0  0  0  0  0  0
   -8.3601   -1.1408  -24.6337 N   0  0  0  0  0  0  0  0  0  0  0  0
   -7.6656    0.0633  -25.0702 C   0  0  0  0  0  0  0  0  0  0  0  0
   -7.9937    1.2693  -24.2358 C   0  0  0  0  0  0  0  0  0  0  0  0
   -7.2738    1.9844  -23.3330 C   0  0  0  0  0  0  0  0  0  0  0  0
   -8.0371    3.0765  -22.9713 N   0  0  0  0  0  0  0  0  0  0  0  0
   -9.2007    3.0096  -23.6247 C   0  0  0  0  0  0  0  0  0  0  0  0
   -9.2167    1.9025  -24.3669 N   0  0  0  0  0  0  0  0  0  0  0  0
   -9.7090   -1.1759  -24.8157 C   0  0  0  0  0  0  0  0  0  0  0  0
  -10.2786   -0.4139  -25.5998 O   0  0  0  0  0  0  0  0  0  0  0  0
  -10.4624   -2.1073  -23.9224 C   0  0  0  0  0  0  0  0  0  0  0  0
  -11.8467   -2.1887  -24.0859 C   0  0  0  0  0  0  0  0  0  0  0  0
  -12.6300   -2.8243  -23.1401 C   0  0  0  0  0  0  0  0  0  0  0  0
  -11.9986   -3.4040  -22.0372 C   0  0  0  0  0  0  0  0  0  0  0  0
  -12.9724   -4.1510  -20.7972 Cl  0  0  0  0  0  0  0  0  0  0  0  0
  -10.6232   -3.3664  -21.8804 C   0  0  0  0  0  0  0  0  0  0  0  0
   -9.8218   -2.7370  -22.8435 C   0  0  0  0  0  0  0  0  0  0  0  0
   -5.8825   -7.0150  -23.8096 H   0  0  0  0  0  0  0  0  0  0  0  0
   -6.3469   -8.0603  -22.4395 H   0  0  0  0  0  0  0  0  0  0  0  0
   -7.5704   -7.5636  -23.6449 H   0  0  0  0  0  0  0  0  0  0  0  0
   -8.2891   -5.2387  -23.5692 H   0  0  0  0  0  0  0  0  0  0  0  0
   -6.5894   -4.7339  -23.7277 H   0  0  0  0  0  0  0  0  0  0  0  0
   -8.2528   -4.2757  -21.2243 H   0  0  0  0  0  0  0  0  0  0  0  0
   -5.5074   -3.2898  -22.0492 H   0  0  0  0  0  0  0  0  0  0  0  0
   -6.0544   -3.9138  -20.4882 H   0  0  0  0  0  0  0  0  0  0  0  0
   -7.3526   -1.9152  -18.3903 H   0  0  0  0  0  0  0  0  0  0  0  0
   -4.6446    0.9651  -17.2058 H   0  0  0  0  0  0  0  0  0  0  0  0
   -3.1647    2.0926  -18.8259 H   0  0  0  0  0  0  0  0  0  0  0  0
   -2.3311    2.3522  -21.1470 H   0  0  0  0  0  0  0  0  0  0  0  0
   -3.2736    0.9576  -22.9695 H   0  0  0  0  0  0  0  0  0  0  0  0
   -5.0312   -0.6879  -22.4981 H   0  0  0  0  0  0  0  0  0  0  0  0
   -6.6245   -1.9514  -23.8252 H   0  0  0  0  0  0  0  0  0  0  0  0
   -7.6999   -3.1055  -24.6570 H   0  0  0  0  0  0  0  0  0  0  0  0
   -7.9498    0.2382  -26.1138 H   0  0  0  0  0  0  0  0  0  0  0  0
   -6.5925   -0.1350  -25.0662 H   0  0  0  0  0  0  0  0  0  0  0  0
   -6.3086    1.8176  -22.8779 H   0  0  0  0  0  0  0  0  0  0  0  0
   -7.7312    3.8273  -22.3643 H   0  0  0  0  0  0  0  0  0  0  0  0
  -10.0038    3.7185  -23.5298 H   0  0  0  0  0  0  0  0  0  0  0  0
   -9.9733    1.5061  -24.9243 H   0  0  0  0  0  0  0  0  0  0  0  0
  -12.2927   -1.7102  -24.9525 H   0  0  0  0  0  0  0  0  0  0  0  0
  -13.7134   -2.8398  -23.2301 H   0  0  0  0  0  0  0  0  0  0  0  0
  -10.1915   -3.8045  -20.9858 H   0  0  0  0  0  0  0  0  0  0  0  0
  1  2  1  0
  2  3  1  0
  3  4  1  0
  4  5  1  0
  5  6  1  0
  6  7  1  0
  7  8  2  0
  8  9  1  0
  9 10  2  0
 10 11  1  0
 11 12  2  0
 12 13  1  0
 13 14  2  0
 14 15  1  0
 15 16  2  0
  6 17  1  0
 17 18  2  0
 17 19  1  0
 19 20  1  6
 20 21  1  0
 21 22  1  0
 22 23  1  0
 23 24  2  0
 24 25  1  0
 25 26  2  0
 26 27  1  0
 21 28  1  0
 28 29  2  0
 28 30  1  0
 30 31  2  0
 31 32  1  0
 32 33  2  0
 33 34  1  0
 33 35  1  0
 35 36  2  0
 19  4  1  0
 27 23  1  0
 36 30  1  0
 16  7  1  0
 36 19  1  0
 16 11  1  0
  1 37  1  0
  1 38  1  0
  1 39  1  0
  3 40  1  0
  3 41  1  0
  4 42  1  1
  5 43  1  0
  5 44  1  0
  8 45  1  0
 10 46  1  0
 12 47  1  0
 13 48  1  0
 14 49  1  0
 15 50  1  0
 20 51  1  0
 20 52  1  0
 22 53  1  0
 22 54  1  0
 24 55  1  0
 25 56  1  0
 26 57  1  0
 27 58  1  0
 31 59  1  0
 32 60  1  0
 35 61  1  0
M  CHG  1  25   1
M  END
>  <RMSD>  (112) 
0.0649687130741067

$$$$

     RDKit          3D

 57 62  0  0  0  0  0  0  0  0999 V2000
   -7.2345   -5.0321  -23.0338 C   0  0  0  0  0  0  0  0  0  0  0  0
   -7.5629   -3.8726  -22.1012 C   0  0  1  0  0  0  0  0  0  0  0  0
   -6.3515   -3.2988  -21.3536 C   0  0  0  0  0  0  0  0  0  0  0  0
   -6.8112   -1.9769  -20.9723 N   0  0  0  0  0  0  0  0  0  0  0  0
   -6.1764   -1.1530  -20.0037 C   0  0  0  0  0  0  0  0  0  0  0  0
   -6.5478   -1.2423  -18.6872 C   0  0  0  0  0  0  0  0  0  0  0  0
   -6.0139   -0.5016  -17.6830 N   0  0  0  0  0  0  0  0  0  0  0  0
   -5.0754    0.3585  -18.0017 C   0  0  0  0  0  0  0  0  0  0  0  0
   -4.5726    0.5418  -19.3223 C   0  0  0  0  0  0  0  0  0  0  0  0
   -3.5538    1.4893  -19.6332 C   0  0  0  0  0  0  0  0  0  0  0  0
   -3.1008    1.6244  -20.9157 C   0  0  0  0  0  0  0  0  0  0  0  0
   -3.6295    0.8187  -21.9503 C   0  0  0  0  0  0  0  0  0  0  0  0
   -4.6144   -0.1011  -21.6766 C   0  0  0  0  0  0  0  0  0  0  0  0
   -5.1239   -0.2509  -20.3602 C   0  0  0  0  0  0  0  0  0  0  0  0
   -7.8831   -1.5283  -21.7196 C   0  0  0  0  0  0  0  0  0  0  0  0
   -8.4164   -0.4539  -21.5650 O   0  0  0  0  0  0  0  0  0  0  0  0
   -8.2343   -2.6328  -22.7528 C   0  0  1  0  0  0  0  0  0  0  0  0
   -7.5872   -2.2826  -24.1241 C   0  0  0  0  0  0  0  0  0  0  0  0
   -8.1470   -1.0692  -24.6869 N   0  0  0  0  0  0  0  0  0  0  0  0
   -7.3338   -0.2241  -25.5521 C   0  0  0  0  0  0  0  0  0  0  0  0
   -7.0974    1.1706  -25.0154 C   0  0  0  0  0  0  0  0  0  0  0  0
   -6.7434    1.2540  -23.7312 N   0  0  0  0  0  0  0  0  0  0  0  0
   -6.5312    2.4853  -23.2674 C   0  0  0  0  0  0  0  0  0  0  0  0
   -6.6570    3.6212  -24.0465 C   0  0  0  0  0  0  0  0  0  0  0  0
   -7.0143    3.4104  -25.3684 C   0  0  0  0  0  0  0  0  0  0  0  0
   -7.2176    2.1918  -25.8627 N   0  0  0  0  0  0  0  0  0  0  0  0
   -9.4896   -0.8192  -24.6463 C   0  0  0  0  0  0  0  0  0  0  0  0
   -9.9846    0.1278  -25.2392 O   0  0  0  0  0  0  0  0  0  0  0  0
  -10.3256   -1.7802  -23.8446 C   0  0  0  0  0  0  0  0  0  0  0  0
  -11.7160   -1.7189  -23.9738 C   0  0  0  0  0  0  0  0  0  0  0  0
  -12.5331   -2.5731  -23.2563 C   0  0  0  0  0  0  0  0  0  0  0  0
  -11.9234   -3.4986  -22.4128 C   0  0  0  0  0  0  0  0  0  0  0  0
  -12.6978   -4.3319  -21.6971 F   0  0  0  0  0  0  0  0  0  0  0  0
  -10.5543   -3.5858  -22.2637 C   0  0  0  0  0  0  0  0  0  0  0  0
   -9.7289   -2.7093  -22.9762 C   0  0  0  0  0  0  0  0  0  0  0  0
   -8.1096   -5.3405  -23.6161 H   0  0  0  0  0  0  0  0  0  0  0  0
   -6.8784   -5.9059  -22.4778 H   0  0  0  0  0  0  0  0  0  0  0  0
   -6.4539   -4.7554  -23.7500 H   0  0  0  0  0  0  0  0  0  0  0  0
   -8.2379   -4.2431  -21.3245 H   0  0  0  0  0  0  0  0  0  0  0  0
   -6.0884   -3.8838  -20.4687 H   0  0  0  0  0  0  0  0  0  0  0  0
   -5.4652   -3.2731  -22.0125 H   0  0  0  0  0  0  0  0  0  0  0  0
   -7.3317   -1.9382  -18.3933 H   0  0  0  0  0  0  0  0  0  0  0  0
   -4.6546    0.9627  -17.1942 H   0  0  0  0  0  0  0  0  0  0  0  0
   -3.1536    2.1090  -18.8324 H   0  0  0  0  0  0  0  0  0  0  0  0
   -2.3311    2.3549  -21.1545 H   0  0  0  0  0  0  0  0  0  0  0  0
   -3.2731    0.9398  -22.9693 H   0  0  0  0  0  0  0  0  0  0  0  0
   -5.0400   -0.6975  -22.4802 H   0  0  0  0  0  0  0  0  0  0  0  0
   -7.7275   -3.1270  -24.8201 H   0  0  0  0  0  0  0  0  0  0  0  0
   -6.5112   -2.1265  -23.9838 H   0  0  0  0  0  0  0  0  0  0  0  0
   -6.3770   -0.7335  -25.6807 H   0  0  0  0  0  0  0  0  0  0  0  0
   -7.7898   -0.1576  -26.5374 H   0  0  0  0  0  0  0  0  0  0  0  0
   -6.2445    2.5637  -22.2208 H   0  0  0  0  0  0  0  0  0  0  0  0
   -6.4825    4.6141  -23.6540 H   0  0  0  0  0  0  0  0  0  0  0  0
   -7.1396    4.2381  -26.0630 H   0  0  0  0  0  0  0  0  0  0  0  0
  -12.1529   -0.9902  -24.6479 H   0  0  0  0  0  0  0  0  0  0  0  0
  -13.6184   -2.5359  -23.3220 H   0  0  0  0  0  0  0  0  0  0  0  0
  -10.1517   -4.3386  -21.5929 H   0  0  0  0  0  0  0  0  0  0  0  0
  1  2  1  0
  2  3  1  0
  3  4  1  0
  4  5  1  0
  5  6  2  0
  6  7  1  0
  7  8  2  0
  8  9  1  0
  9 10  2  0
 10 11  1  0
 11 12  2  0
 12 13  1  0
 13 14  2  0
  4 15  1  0
 15 16  2  0
 15 17  1  0
 17 18  1  6
 18 19  1  0
 19 20  1  0
 20 21  1  0
 21 22  2  0
 22 23  1  0
 23 24  2  0
 24 25  1  0
 25 26  2  0
 19 27  1  0
 27 28  2  0
 27 29  1  0
 29 30  2  0
 30 31  1  0
 31 32  2  0
 32 33  1  0
 32 34  1  0
 34 35  2  0
 17  2  1  0
 26 21  1  0
 35 29  1  0
 14  5  1  0
 35 17  1  0
 14  9  1  0
  1 36  1  0
  1 37  1  0
  1 38  1  0
  2 39  1  1
  3 40  1  0
  3 41  1  0
  6 42  1  0
  8 43  1  0
 10 44  1  0
 11 45  1  0
 12 46  1  0
 13 47  1  0
 18 48  1  0
 18 49  1  0
 20 50  1  0
 20 51  1  0
 23 52  1  0
 24 53  1  0
 25 54  1  0
 30 55  1  0
 31 56  1  0
 34 57  1  0
M  END
>  <RMSD>  (113) 
0.05627604635531863

$$$$

     RDKit          3D

 59 63  0  0  0  0  0  0  0  0999 V2000
   -6.7652    2.6485  -23.2150 C   0  0  0  0  0  0  0  0  0  0  0  0
   -7.3288    1.4775  -23.8576 N   0  0  0  0  0  0  0  0  0  0  0  0
   -6.8422    1.0461  -25.0378 C   0  0  0  0  0  0  0  0  0  0  0  0
   -6.0235    1.6721  -25.6949 O   0  0  0  0  0  0  0  0  0  0  0  0
   -7.3473   -0.3084  -25.5628 C   0  0  0  0  0  0  0  0  0  0  0  0
   -8.1680   -1.1108  -24.6758 N   0  0  0  0  0  0  0  0  0  0  0  0
   -7.6021   -2.3114  -24.0904 C   0  0  0  0  0  0  0  0  0  0  0  0
   -8.2417   -2.6769  -22.7144 C   0  0  2  0  0  0  0  0  0  0  0  0
   -7.8766   -1.5659  -21.6980 C   0  0  0  0  0  0  0  0  0  0  0  0
   -8.4176   -0.4848  -21.5717 O   0  0  0  0  0  0  0  0  0  0  0  0
   -6.7875   -1.9834  -20.9711 N   0  0  0  0  0  0  0  0  0  0  0  0
   -6.1730   -1.1517  -19.9985 C   0  0  0  0  0  0  0  0  0  0  0  0
   -6.5505   -1.2335  -18.6832 C   0  0  0  0  0  0  0  0  0  0  0  0
   -6.0134   -0.4957  -17.6783 N   0  0  0  0  0  0  0  0  0  0  0  0
   -5.0705    0.3589  -18.0013 C   0  0  0  0  0  0  0  0  0  0  0  0
   -4.5785    0.5442  -19.3280 C   0  0  0  0  0  0  0  0  0  0  0  0
   -3.5565    1.4821  -19.6336 C   0  0  0  0  0  0  0  0  0  0  0  0
   -3.0948    1.6149  -20.9171 C   0  0  0  0  0  0  0  0  0  0  0  0
   -3.6265    0.8155  -21.9530 C   0  0  0  0  0  0  0  0  0  0  0  0
   -4.6253   -0.0897  -21.6839 C   0  0  0  0  0  0  0  0  0  0  0  0
   -5.1357   -0.2393  -20.3632 C   0  0  0  0  0  0  0  0  0  0  0  0
   -6.2643   -3.2673  -21.3846 C   0  0  0  0  0  0  0  0  0  0  0  0
   -7.4764   -3.9351  -22.0990 C   0  0  0  0  0  0  0  0  0  0  0  0
   -8.1877   -4.7347  -21.0065 C   0  0  0  0  0  0  0  0  0  0  0  0
   -7.0487   -4.9623  -23.1524 C   0  0  0  0  0  0  0  0  0  0  0  0
   -9.7539   -2.6993  -22.9363 C   0  0  0  0  0  0  0  0  0  0  0  0
  -10.6166   -3.5009  -22.1888 C   0  0  0  0  0  0  0  0  0  0  0  0
  -11.9851   -3.4574  -22.3678 C   0  0  0  0  0  0  0  0  0  0  0  0
  -12.9872   -4.5617  -21.4624 Cl  0  0  0  0  0  0  0  0  0  0  0  0
  -12.5660   -2.5802  -23.2764 C   0  0  0  0  0  0  0  0  0  0  0  0
  -11.7335   -1.7508  -24.0004 C   0  0  0  0  0  0  0  0  0  0  0  0
  -10.3487   -1.8136  -23.8497 C   0  0  0  0  0  0  0  0  0  0  0  0
   -9.5150   -0.8742  -24.6639 C   0  0  0  0  0  0  0  0  0  0  0  0
   -9.9963    0.0772  -25.2643 O   0  0  0  0  0  0  0  0  0  0  0  0
   -7.3023    2.8006  -22.2761 H   0  0  0  0  0  0  0  0  0  0  0  0
   -6.8671    3.5365  -23.8481 H   0  0  0  0  0  0  0  0  0  0  0  0
   -5.6992    2.4983  -22.9983 H   0  0  0  0  0  0  0  0  0  0  0  0
   -8.0447    0.9526  -23.3716 H   0  0  0  0  0  0  0  0  0  0  0  0
   -7.9009   -0.1054  -26.4857 H   0  0  0  0  0  0  0  0  0  0  0  0
   -6.4481   -0.8712  -25.8333 H   0  0  0  0  0  0  0  0  0  0  0  0
   -6.5320   -2.1354  -23.9485 H   0  0  0  0  0  0  0  0  0  0  0  0
   -7.7394   -3.1628  -24.7682 H   0  0  0  0  0  0  0  0  0  0  0  0
   -7.3285   -1.9357  -18.3911 H   0  0  0  0  0  0  0  0  0  0  0  0
   -4.6545    0.9590  -17.1910 H   0  0  0  0  0  0  0  0  0  0  0  0
   -3.1679    2.0941  -18.8257 H   0  0  0  0  0  0  0  0  0  0  0  0
   -2.3304    2.3504  -21.1534 H   0  0  0  0  0  0  0  0  0  0  0  0
   -3.2743    0.9459  -22.9750 H   0  0  0  0  0  0  0  0  0  0  0  0
   -5.0358   -0.6980  -22.4829 H   0  0  0  0  0  0  0  0  0  0  0  0
   -5.9226   -3.8182  -20.5020 H   0  0  0  0  0  0  0  0  0  0  0  0
   -5.3925   -3.1590  -22.0504 H   0  0  0  0  0  0  0  0  0  0  0  0
   -7.4501   -5.4024  -20.5528 H   0  0  0  0  0  0  0  0  0  0  0  0
   -8.9417   -5.3815  -21.4501 H   0  0  0  0  0  0  0  0  0  0  0  0
   -8.6229   -4.1084  -20.2233 H   0  0  0  0  0  0  0  0  0  0  0  0
   -7.9261   -5.2823  -23.7261 H   0  0  0  0  0  0  0  0  0  0  0  0
   -6.3032   -4.5618  -23.8451 H   0  0  0  0  0  0  0  0  0  0  0  0
   -6.6276   -5.8532  -22.6761 H   0  0  0  0  0  0  0  0  0  0  0  0
  -10.2174   -4.1492  -21.4409 H   0  0  0  0  0  0  0  0  0  0  0  0
  -13.6418   -2.5349  -23.3938 H   0  0  0  0  0  0  0  0  0  0  0  0
  -12.1077   -0.9919  -24.6765 H   0  0  0  0  0  0  0  0  0  0  0  0
  1  2  1  0
  2  3  1  0
  3  4  2  0
  3  5  1  0
  5  6  1  0
  6  7  1  0
  8  7  1  6
  8  9  1  0
  9 10  2  0
  9 11  1  0
 11 12  1  0
 12 13  2  0
 13 14  1  0
 14 15  2  0
 15 16  1  0
 16 17  2  0
 17 18  1  0
 18 19  2  0
 19 20  1  0
 20 21  2  0
 11 22  1  0
 22 23  1  0
 23 24  1  0
 23 25  1  0
  8 26  1  0
 26 27  2  0
 27 28  1  0
 28 29  1  0
 28 30  2  0
 30 31  1  0
 31 32  2  0
 32 33  1  0
 33 34  2  0
 33  6  1  0
 23  8  1  0
 32 26  1  0
 21 12  1  0
 21 16  1  0
  1 35  1  0
  1 36  1  0
  1 37  1  0
  2 38  1  0
  5 39  1  0
  5 40  1  0
  7 41  1  0
  7 42  1  0
 13 43  1  0
 15 44  1  0
 17 45  1  0
 18 46  1  0
 19 47  1  0
 20 48  1  0
 22 49  1  0
 22 50  1  0
 24 51  1  0
 24 52  1  0
 24 53  1  0
 25 54  1  0
 25 55  1  0
 25 56  1  0
 27 57  1  0
 30 58  1  0
 31 59  1  0
M  END
>  <RMSD>  (114) 
0.06031234494331198

$$$$

     RDKit          3D

 42 45  0  0  0  0  0  0  0  0999 V2000
   -7.4370   -0.1612  -25.6106 C   0  0  0  0  0  0  0  0  0  0  0  0
   -8.2408   -0.8467  -24.6162 N   0  0  0  0  0  0  0  0  0  0  0  0
   -7.7049   -2.0988  -24.1184 C   0  0  0  0  0  0  0  0  0  0  0  0
   -8.3639   -2.5003  -22.7950 C   0  0  1  0  0  0  0  0  0  0  0  0
   -7.9332   -1.5700  -21.6541 C   0  0  0  0  0  0  0  0  0  0  0  0
   -8.5336   -0.5602  -21.3482 O   0  0  0  0  0  0  0  0  0  0  0  0
   -6.7853   -1.9575  -20.9977 N   0  0  0  0  0  0  0  0  0  0  0  0
   -6.1658   -1.1529  -20.0036 C   0  0  0  0  0  0  0  0  0  0  0  0
   -6.5324   -1.2538  -18.6865 C   0  0  0  0  0  0  0  0  0  0  0  0
   -5.9989   -0.5201  -17.6778 N   0  0  0  0  0  0  0  0  0  0  0  0
   -5.0703    0.3537  -17.9937 C   0  0  0  0  0  0  0  0  0  0  0  0
   -4.5676    0.5400  -19.3143 C   0  0  0  0  0  0  0  0  0  0  0  0
   -3.5666    1.4997  -19.6322 C   0  0  0  0  0  0  0  0  0  0  0  0
   -3.1150    1.6261  -20.9191 C   0  0  0  0  0  0  0  0  0  0  0  0
   -3.6310    0.8053  -21.9486 C   0  0  0  0  0  0  0  0  0  0  0  0
   -4.6016   -0.1220  -21.6715 C   0  0  0  0  0  0  0  0  0  0  0  0
   -5.1044   -0.2597  -20.3478 C   0  0  0  0  0  0  0  0  0  0  0  0
   -9.8554   -2.4762  -22.9569 C   0  0  0  0  0  0  0  0  0  0  0  0
  -10.6573   -3.3455  -22.2168 C   0  0  0  0  0  0  0  0  0  0  0  0
  -12.0374   -3.2373  -22.2970 C   0  0  0  0  0  0  0  0  0  0  0  0
  -13.0328   -4.3274  -21.3767 Cl  0  0  0  0  0  0  0  0  0  0  0  0
  -12.6387   -2.2650  -23.0997 C   0  0  0  0  0  0  0  0  0  0  0  0
  -11.8349   -1.4040  -23.8292 C   0  0  0  0  0  0  0  0  0  0  0  0
  -10.4404   -1.5106  -23.7688 C   0  0  0  0  0  0  0  0  0  0  0  0
   -9.5882   -0.5832  -24.5953 C   0  0  0  0  0  0  0  0  0  0  0  0
  -10.0839    0.3180  -25.2448 O   0  0  0  0  0  0  0  0  0  0  0  0
   -7.5092   -0.6352  -26.5986 H   0  0  0  0  0  0  0  0  0  0  0  0
   -6.3928   -0.1813  -25.2905 H   0  0  0  0  0  0  0  0  0  0  0  0
   -7.7685    0.8717  -25.6995 H   0  0  0  0  0  0  0  0  0  0  0  0
   -6.6304   -1.9640  -23.9664 H   0  0  0  0  0  0  0  0  0  0  0  0
   -7.8274   -2.9099  -24.8543 H   0  0  0  0  0  0  0  0  0  0  0  0
   -8.0367   -3.5095  -22.5360 H   0  0  0  0  0  0  0  0  0  0  0  0
   -6.2758   -2.7555  -21.3459 H   0  0  0  0  0  0  0  0  0  0  0  0
   -7.3005   -1.9661  -18.3924 H   0  0  0  0  0  0  0  0  0  0  0  0
   -4.6581    0.9673  -17.1910 H   0  0  0  0  0  0  0  0  0  0  0  0
   -3.1784    2.1343  -18.8387 H   0  0  0  0  0  0  0  0  0  0  0  0
   -2.3557    2.3646  -21.1635 H   0  0  0  0  0  0  0  0  0  0  0  0
   -3.2620    0.9117  -22.9647 H   0  0  0  0  0  0  0  0  0  0  0  0
   -5.0083   -0.7464  -22.4622 H   0  0  0  0  0  0  0  0  0  0  0  0
  -10.2061   -4.1067  -21.5831 H   0  0  0  0  0  0  0  0  0  0  0  0
  -13.7241   -2.1894  -23.1389 H   0  0  0  0  0  0  0  0  0  0  0  0
  -12.2810   -0.6406  -24.4582 H   0  0  0  0  0  0  0  0  0  0  0  0
  1  2  1  0
  2  3  1  0
  3  4  1  0
  4  5  1  0
  5  6  2  0
  5  7  1  0
  7  8  1  0
  8  9  2  0
  9 10  1  0
 10 11  2  0
 11 12  1  0
 12 13  2  0
 13 14  1  0
 14 15  2  0
 15 16  1  0
 16 17  2  0
  4 18  1  0
 18 19  2  0
 19 20  1  0
 20 21  1  0
 20 22  2  0
 22 23  1  0
 23 24  2  0
 24 25  1  0
 25 26  2  0
 25  2  1  0
 17  8  1  0
 24 18  1  0
 17 12  1  0
  1 27  1  0
  1 28  1  0
  1 29  1  0
  3 30  1  0
  3 31  1  0
  4 32  1  1
  7 33  1  0
  9 34  1  0
 11 35  1  0
 13 36  1  0
 14 37  1  0
 15 38  1  0
 16 39  1  0
 19 40  1  0
 22 41  1  0
 23 42  1  0
M  END
>  <RMSD>  (115) 
0.04069647317833469

$$$$

     RDKit          3D

 60 65  0  0  0  0  0  0  0  0999 V2000
   -6.7689    2.6268  -23.1995 C   0  0  0  0  0  0  0  0  0  0  0  0
   -7.3394    1.4478  -23.8245 N   0  0  0  0  0  0  0  0  0  0  0  0
   -6.8483    1.0272  -25.0138 C   0  0  0  0  0  0  0  0  0  0  0  0
   -6.0279    1.6588  -25.6643 O   0  0  0  0  0  0  0  0  0  0  0  0
   -7.3662   -0.3002  -25.5769 C   0  0  0  0  0  0  0  0  0  0  0  0
   -8.1765   -1.1108  -24.6995 N   0  0  0  0  0  0  0  0  0  0  0  0
   -7.5862   -2.2910  -24.1008 C   0  0  0  0  0  0  0  0  0  0  0  0
   -8.2108   -2.6357  -22.7270 C   0  0  2  0  0  0  0  0  0  0  0  0
   -7.8433   -1.5446  -21.6940 C   0  0  0  0  0  0  0  0  0  0  0  0
   -8.3609   -0.4521  -21.5581 O   0  0  0  0  0  0  0  0  0  0  0  0
   -6.7854   -1.9981  -20.9418 N   0  0  0  0  0  0  0  0  0  0  0  0
   -6.1549   -1.1669  -19.9873 C   0  0  0  0  0  0  0  0  0  0  0  0
   -6.5468   -1.2396  -18.6759 C   0  0  0  0  0  0  0  0  0  0  0  0
   -6.0280   -0.4862  -17.6730 N   0  0  0  0  0  0  0  0  0  0  0  0
   -5.0827    0.3660  -18.0026 C   0  0  0  0  0  0  0  0  0  0  0  0
   -4.5866    0.5417  -19.3291 C   0  0  0  0  0  0  0  0  0  0  0  0
   -3.5658    1.4801  -19.6338 C   0  0  0  0  0  0  0  0  0  0  0  0
   -3.1031    1.6173  -20.9134 C   0  0  0  0  0  0  0  0  0  0  0  0
   -3.6342    0.8264  -21.9545 C   0  0  0  0  0  0  0  0  0  0  0  0
   -4.6302   -0.0809  -21.6920 C   0  0  0  0  0  0  0  0  0  0  0  0
   -5.1321   -0.2460  -20.3669 C   0  0  0  0  0  0  0  0  0  0  0  0
   -6.3183   -3.3137  -21.3152 C   0  0  0  0  0  0  0  0  0  0  0  0
   -7.5039   -3.8763  -22.1123 C   0  0  2  0  0  0  0  0  0  0  0  0
   -7.0824   -4.9912  -23.0773 C   0  0  0  0  0  0  0  0  0  0  0  0
   -6.4828   -6.1438  -22.3498 C   0  0  0  0  0  0  0  0  0  0  0  0
   -5.2491   -6.2009  -21.8632 N   0  0  0  0  0  0  0  0  0  0  0  0
   -5.1713   -7.3888  -21.2724 N   0  0  0  0  0  0  0  0  0  0  0  0
   -6.3129   -8.0121  -21.4042 N   0  0  0  0  0  0  0  0  0  0  0  0
   -7.1571   -7.2459  -22.0788 N   0  0  0  0  0  0  0  0  0  0  0  0
   -9.7135   -2.7162  -22.9302 C   0  0  0  0  0  0  0  0  0  0  0  0
  -10.5506   -3.5849  -22.2172 C   0  0  0  0  0  0  0  0  0  0  0  0
  -11.9254   -3.5055  -22.3708 C   0  0  0  0  0  0  0  0  0  0  0  0
  -12.9413   -4.5820  -21.4526 Cl  0  0  0  0  0  0  0  0  0  0  0  0
  -12.5281   -2.5820  -23.2217 C   0  0  0  0  0  0  0  0  0  0  0  0
  -11.7126   -1.7338  -23.9390 C   0  0  0  0  0  0  0  0  0  0  0  0
  -10.3259   -1.8110  -23.8129 C   0  0  0  0  0  0  0  0  0  0  0  0
   -9.5262   -0.8897  -24.6755 C   0  0  0  0  0  0  0  0  0  0  0  0
  -10.0565    0.0158  -25.3097 O   0  0  0  0  0  0  0  0  0  0  0  0
   -6.8688    3.5078  -23.8438 H   0  0  0  0  0  0  0  0  0  0  0  0
   -5.7025    2.4774  -22.9785 H   0  0  0  0  0  0  0  0  0  0  0  0
   -7.2984    2.8179  -22.2619 H   0  0  0  0  0  0  0  0  0  0  0  0
   -7.9093    0.8394  -23.2419 H   0  0  0  0  0  0  0  0  0  0  0  0
   -6.4848   -0.8662  -25.8954 H   0  0  0  0  0  0  0  0  0  0  0  0
   -7.9427   -0.0690  -26.4762 H   0  0  0  0  0  0  0  0  0  0  0  0
   -7.7292   -3.1600  -24.7568 H   0  0  0  0  0  0  0  0  0  0  0  0
   -6.5090   -2.1245  -23.9777 H   0  0  0  0  0  0  0  0  0  0  0  0
   -7.3413   -1.9319  -18.4023 H   0  0  0  0  0  0  0  0  0  0  0  0
   -4.6343    0.9640  -17.2077 H   0  0  0  0  0  0  0  0  0  0  0  0
   -3.1600    2.0835  -18.8290 H   0  0  0  0  0  0  0  0  0  0  0  0
   -2.3226    2.3352  -21.1448 H   0  0  0  0  0  0  0  0  0  0  0  0
   -3.2691    0.9554  -22.9707 H   0  0  0  0  0  0  0  0  0  0  0  0
   -5.0263   -0.6823  -22.5052 H   0  0  0  0  0  0  0  0  0  0  0  0
   -6.0777   -3.9373  -20.4482 H   0  0  0  0  0  0  0  0  0  0  0  0
   -5.4150   -3.2640  -21.9433 H   0  0  0  0  0  0  0  0  0  0  0  0
   -8.1811   -4.3299  -21.3876 H   0  0  0  0  0  0  0  0  0  0  0  0
   -6.3744   -4.6056  -23.8127 H   0  0  0  0  0  0  0  0  0  0  0  0
   -7.9377   -5.3994  -23.6148 H   0  0  0  0  0  0  0  0  0  0  0  0
  -10.1664   -4.3338  -21.5337 H   0  0  0  0  0  0  0  0  0  0  0  0
  -13.6105   -2.5488  -23.3076 H   0  0  0  0  0  0  0  0  0  0  0  0
  -12.1381   -1.0048  -24.6190 H   0  0  0  0  0  0  0  0  0  0  0  0
  1  2  1  0
  2  3  1  0
  3  4  2  0
  3  5  1  0
  5  6  1  0
  6  7  1  0
  8  7  1  6
  8  9  1  0
  9 10  2  0
  9 11  1  0
 11 12  1  0
 12 13  2  0
 13 14  1  0
 14 15  2  0
 15 16  1  0
 16 17  2  0
 17 18  1  0
 18 19  2  0
 19 20  1  0
 20 21  2  0
 11 22  1  0
 22 23  1  0
 23 24  1  0
 24 25  1  0
 25 26  1  0
 26 27  2  0
 27 28  1  0
 28 29  1  0
  8 30  1  0
 30 31  2  0
 31 32  1  0
 32 33  1  0
 32 34  2  0
 34 35  1  0
 35 36  2  0
 36 37  1  0
 37 38  2  0
 37  6  1  0
 23  8  1  0
 29 25  2  0
 36 30  1  0
 21 12  1  0
 21 16  1  0
  1 39  1  0
  1 40  1  0
  1 41  1  0
  2 42  1  0
  5 43  1  0
  5 44  1  0
  7 45  1  0
  7 46  1  0
 13 47  1  0
 15 48  1  0
 17 49  1  0
 18 50  1  0
 19 51  1  0
 20 52  1  0
 22 53  1  0
 22 54  1  0
 23 55  1  1
 24 56  1  0
 24 57  1  0
 31 58  1  0
 34 59  1  0
 35 60  1  0
M  CHG  1  28  -1
M  END
>  <RMSD>  (116) 
0.06434607347116045

$$$$

     RDKit          3D

 41 43  0  0  0  0  0  0  0  0999 V2000
    8.2636    0.2799   21.0939 O   0  0  0  0  0  0  0  0  0  0  0  0
    7.5591   -0.5671   21.6165 C   0  0  0  0  0  0  0  0  0  0  0  0
    6.2500   -1.0449   20.9752 C   0  0  0  0  0  0  0  0  0  0  0  0
    5.7448   -0.2160   19.8309 C   0  0  0  0  0  0  0  0  0  0  0  0
    6.1796   -0.4756   18.5572 C   0  0  0  0  0  0  0  0  0  0  0  0
    5.7535    0.1565   17.4308 N   0  0  0  0  0  0  0  0  0  0  0  0
    4.8198    1.0648   17.5906 C   0  0  0  0  0  0  0  0  0  0  0  0
    4.2455    1.4178   18.8430 C   0  0  0  0  0  0  0  0  0  0  0  0
    3.1652    2.3316   18.9471 C   0  0  0  0  0  0  0  0  0  0  0  0
    2.5948    2.5906   20.1660 C   0  0  0  0  0  0  0  0  0  0  0  0
    3.1244    2.0016   21.3366 C   0  0  0  0  0  0  0  0  0  0  0  0
    4.2016    1.1518   21.2662 C   0  0  0  0  0  0  0  0  0  0  0  0
    4.7495    0.7896   20.0068 C   0  0  0  0  0  0  0  0  0  0  0  0
    7.9233   -1.1671   22.8078 N   0  0  0  0  0  0  0  0  0  0  0  0
    9.1713   -0.6939   23.4187 C   0  0  0  0  0  0  0  0  0  0  0  0
   10.4114   -1.1896   22.6696 C   0  0  0  0  0  0  0  0  0  0  0  0
   10.7729   -2.6241   23.0332 C   0  0  0  0  0  0  0  0  0  0  0  0
    9.5215   -3.9083   22.7305 S   0  0  0  0  0  0  0  0  0  0  0  0
    8.1870   -3.4387   23.8665 C   0  0  0  0  0  0  0  0  0  0  0  0
    7.2499   -2.3205   23.3723 C   0  0  1  0  0  0  0  0  0  0  0  0
    6.3191   -1.8775   24.5021 C   0  0  0  0  0  0  0  0  0  0  0  0
    5.5142   -2.8824   24.8891 F   0  0  0  0  0  0  0  0  0  0  0  0
    7.0134   -1.4799   25.5871 F   0  0  0  0  0  0  0  0  0  0  0  0
    5.5462   -0.8522   24.1124 F   0  0  0  0  0  0  0  0  0  0  0  0
    5.4774   -1.1410   21.7413 H   0  0  0  0  0  0  0  0  0  0  0  0
    6.4542   -2.0587   20.6017 H   0  0  0  0  0  0  0  0  0  0  0  0
    6.9207   -1.2578   18.3980 H   0  0  0  0  0  0  0  0  0  0  0  0
    4.4446    1.5509   16.6895 H   0  0  0  0  0  0  0  0  0  0  0  0
    2.8045    2.8172   18.0443 H   0  0  0  0  0  0  0  0  0  0  0  0
    1.7304    3.2429   20.2404 H   0  0  0  0  0  0  0  0  0  0  0  0
    2.6634    2.2040   22.2994 H   0  0  0  0  0  0  0  0  0  0  0  0
    4.6412    0.7592   22.1814 H   0  0  0  0  0  0  0  0  0  0  0  0
    9.1439    0.4015   23.4048 H   0  0  0  0  0  0  0  0  0  0  0  0
    9.2043   -1.0342   24.4612 H   0  0  0  0  0  0  0  0  0  0  0  0
   11.2755   -0.5749   22.9780 H   0  0  0  0  0  0  0  0  0  0  0  0
   10.2590   -1.0701   21.5929 H   0  0  0  0  0  0  0  0  0  0  0  0
   11.6674   -2.9146   22.4729 H   0  0  0  0  0  0  0  0  0  0  0  0
   11.0695   -2.5815   24.0808 H   0  0  0  0  0  0  0  0  0  0  0  0
    8.5763   -3.2024   24.8597 H   0  0  0  0  0  0  0  0  0  0  0  0
    7.6020   -4.3566   23.9580 H   0  0  0  0  0  0  0  0  0  0  0  0
    6.5997   -2.7546   22.6088 H   0  0  0  0  0  0  0  0  0  0  0  0
  1  2  2  0
  2  3  1  0
  3  4  1  0
  4  5  2  0
  5  6  1  0
  6  7  2  0
  7  8  1  0
  8  9  2  0
  9 10  1  0
 10 11  2  0
 11 12  1  0
 12 13  2  0
  2 14  1  0
 14 15  1  0
 15 16  1  0
 16 17  1  0
 17 18  1  0
 18 19  1  0
 19 20  1  0
 20 21  1  0
 21 22  1  0
 21 23  1  0
 21 24  1  0
 13  4  1  0
 20 14  1  0
 13  8  1  0
  3 25  1  0
  3 26  1  0
  5 27  1  0
  7 28  1  0
  9 29  1  0
 10 30  1  0
 11 31  1  0
 12 32  1  0
 15 33  1  0
 15 34  1  0
 16 35  1  0
 16 36  1  0
 17 37  1  0
 17 38  1  0
 19 39  1  0
 19 40  1  0
 20 41  1  6
M  END
>  <RMSD>  (117) 
0.07231373574584506

$$$$

     RDKit          3D

 67 72  0  0  0  0  0  0  0  0999 V2000
   -6.7708    2.6164  -23.1815 C   0  0  0  0  0  0  0  0  0  0  0  0
   -7.3327    1.4230  -23.7877 N   0  0  0  0  0  0  0  0  0  0  0  0
   -6.8565    1.0165  -24.9887 C   0  0  0  0  0  0  0  0  0  0  0  0
   -6.0454    1.6620  -25.6403 O   0  0  0  0  0  0  0  0  0  0  0  0
   -7.3873   -0.3023  -25.5671 C   0  0  0  0  0  0  0  0  0  0  0  0
   -8.1847   -1.1220  -24.6816 N   0  0  0  0  0  0  0  0  0  0  0  0
   -7.5945   -2.3106  -24.0852 C   0  0  0  0  0  0  0  0  0  0  0  0
   -8.2339   -2.6416  -22.7078 C   0  0  2  0  0  0  0  0  0  0  0  0
   -7.8424   -1.5435  -21.6879 C   0  0  0  0  0  0  0  0  0  0  0  0
   -8.3346   -0.4368  -21.5650 O   0  0  0  0  0  0  0  0  0  0  0  0
   -6.7860   -2.0090  -20.9386 N   0  0  0  0  0  0  0  0  0  0  0  0
   -6.1516   -1.1758  -19.9850 C   0  0  0  0  0  0  0  0  0  0  0  0
   -6.5488   -1.2360  -18.6737 C   0  0  0  0  0  0  0  0  0  0  0  0
   -6.0261   -0.4825  -17.6734 N   0  0  0  0  0  0  0  0  0  0  0  0
   -5.0788    0.3642  -18.0074 C   0  0  0  0  0  0  0  0  0  0  0  0
   -4.5846    0.5408  -19.3322 C   0  0  0  0  0  0  0  0  0  0  0  0
   -3.5638    1.4822  -19.6314 C   0  0  0  0  0  0  0  0  0  0  0  0
   -3.1034    1.6185  -20.9114 C   0  0  0  0  0  0  0  0  0  0  0  0
   -3.6363    0.8290  -21.9557 C   0  0  0  0  0  0  0  0  0  0  0  0
   -4.6303   -0.0816  -21.6940 C   0  0  0  0  0  0  0  0  0  0  0  0
   -5.1323   -0.2506  -20.3695 C   0  0  0  0  0  0  0  0  0  0  0  0
   -6.3339   -3.3305  -21.3252 C   0  0  0  0  0  0  0  0  0  0  0  0
   -7.5768   -3.8743  -22.0392 C   0  0  2  0  0  0  0  0  0  0  0  0
   -7.2910   -5.0743  -22.9403 C   0  0  0  0  0  0  0  0  0  0  0  0
   -6.9121   -6.2447  -22.1847 N   0  0  0  0  0  0  0  0  0  0  0  0
   -5.6075   -6.4680  -21.8416 C   0  0  0  0  0  0  0  0  0  0  0  0
   -4.4860   -5.8643  -22.3380 C   0  0  0  0  0  0  0  0  0  0  0  0
   -3.2877   -6.3479  -21.8860 N   0  0  0  0  0  0  0  0  0  0  0  0
   -3.4511   -7.3229  -21.0499 C   0  0  0  0  0  0  0  0  0  0  0  0
   -2.2752   -8.0548  -20.4949 C   0  0  0  0  0  0  0  0  0  0  0  0
   -5.1269   -7.7210  -20.7199 S   0  0  0  0  0  0  0  0  0  0  0  0
   -9.7351   -2.7100  -22.9084 C   0  0  0  0  0  0  0  0  0  0  0  0
  -10.5683   -3.5815  -22.1927 C   0  0  0  0  0  0  0  0  0  0  0  0
  -11.9408   -3.5015  -22.3472 C   0  0  0  0  0  0  0  0  0  0  0  0
  -12.9594   -4.5789  -21.4398 Cl  0  0  0  0  0  0  0  0  0  0  0  0
  -12.5414   -2.5761  -23.1980 C   0  0  0  0  0  0  0  0  0  0  0  0
  -11.7290   -1.7292  -23.9191 C   0  0  0  0  0  0  0  0  0  0  0  0
  -10.3436   -1.8089  -23.7957 C   0  0  0  0  0  0  0  0  0  0  0  0
   -9.5359   -0.9048  -24.6698 C   0  0  0  0  0  0  0  0  0  0  0  0
  -10.0576   -0.0150  -25.3319 O   0  0  0  0  0  0  0  0  0  0  0  0
   -7.3026    2.8203  -22.2479 H   0  0  0  0  0  0  0  0  0  0  0  0
   -5.7059    2.4700  -22.9588 H   0  0  0  0  0  0  0  0  0  0  0  0
   -6.8707    3.4856  -23.8420 H   0  0  0  0  0  0  0  0  0  0  0  0
   -7.8502    0.7892  -23.1873 H   0  0  0  0  0  0  0  0  0  0  0  0
   -7.9810   -0.0518  -26.4548 H   0  0  0  0  0  0  0  0  0  0  0  0
   -6.5145   -0.8641  -25.9158 H   0  0  0  0  0  0  0  0  0  0  0  0
   -7.7329   -3.1685  -24.7578 H   0  0  0  0  0  0  0  0  0  0  0  0
   -6.5173   -2.1341  -23.9747 H   0  0  0  0  0  0  0  0  0  0  0  0
   -7.3441   -1.9266  -18.3997 H   0  0  0  0  0  0  0  0  0  0  0  0
   -4.6396    0.9648  -17.2113 H   0  0  0  0  0  0  0  0  0  0  0  0
   -3.1585    2.0861  -18.8228 H   0  0  0  0  0  0  0  0  0  0  0  0
   -2.3183    2.3323  -21.1395 H   0  0  0  0  0  0  0  0  0  0  0  0
   -3.2695    0.9573  -22.9728 H   0  0  0  0  0  0  0  0  0  0  0  0
   -5.0316   -0.6752  -22.5118 H   0  0  0  0  0  0  0  0  0  0  0  0
   -6.0542   -3.9392  -20.4607 H   0  0  0  0  0  0  0  0  0  0  0  0
   -5.4538   -3.2901  -21.9914 H   0  0  0  0  0  0  0  0  0  0  0  0
   -8.2439   -4.1888  -21.2297 H   0  0  0  0  0  0  0  0  0  0  0  0
   -8.1664   -5.3033  -23.5586 H   0  0  0  0  0  0  0  0  0  0  0  0
   -6.4661   -4.8386  -23.6226 H   0  0  0  0  0  0  0  0  0  0  0  0
   -7.6299   -6.7742  -21.7116 H   0  0  0  0  0  0  0  0  0  0  0  0
   -4.4859   -5.0733  -23.0774 H   0  0  0  0  0  0  0  0  0  0  0  0
   -1.9746   -8.8701  -21.1680 H   0  0  0  0  0  0  0  0  0  0  0  0
   -2.4659   -8.4486  -19.4946 H   0  0  0  0  0  0  0  0  0  0  0  0
   -1.4380   -7.3562  -20.4712 H   0  0  0  0  0  0  0  0  0  0  0  0
  -10.1794   -4.3360  -21.5169 H   0  0  0  0  0  0  0  0  0  0  0  0
  -13.6203   -2.5296  -23.2899 H   0  0  0  0  0  0  0  0  0  0  0  0
  -12.1441   -0.9931  -24.5978 H   0  0  0  0  0  0  0  0  0  0  0  0
  1  2  1  0
  2  3  1  0
  3  4  2  0
  3  5  1  0
  5  6  1  0
  6  7  1  0
  8  7  1  6
  8  9  1  0
  9 10  2  0
  9 11  1  0
 11 12  1  0
 12 13  2  0
 13 14  1  0
 14 15  2  0
 15 16  1  0
 16 17  2  0
 17 18  1  0
 18 19  2  0
 19 20  1  0
 20 21  2  0
 11 22  1  0
 22 23  1  0
 23 24  1  0
 24 25  1  0
 25 26  1  0
 26 27  2  0
 27 28  1  0
 28 29  2  0
 29 30  1  0
 29 31  1  0
  8 32  1  0
 32 33  2  0
 33 34  1  0
 34 35  1  0
 34 36  2  0
 36 37  1  0
 37 38  2  0
 38 39  1  0
 39 40  2  0
 39  6  1  0
 23  8  1  0
 31 26  1  0
 38 32  1  0
 21 12  1  0
 21 16  1  0
  1 41  1  0
  1 42  1  0
  1 43  1  0
  2 44  1  0
  5 45  1  0
  5 46  1  0
  7 47  1  0
  7 48  1  0
 13 49  1  0
 15 50  1  0
 17 51  1  0
 18 52  1  0
 19 53  1  0
 20 54  1  0
 22 55  1  0
 22 56  1  0
 23 57  1  1
 24 58  1  0
 24 59  1  0
 25 60  1  0
 27 61  1  0
 30 62  1  0
 30 63  1  0
 30 64  1  0
 33 65  1  0
 36 66  1  0
 37 67  1  0
M  END
>  <RMSD>  (118) 
0.06714476274597858

$$$$

     RDKit          3D

 62 67  0  0  0  0  0  0  0  0999 V2000
   -8.7049    2.3468  -27.8055 C   0  0  0  0  0  0  0  0  0  0  0  0
   -7.2445    2.2638  -27.3845 C   0  0  0  0  0  0  0  0  0  0  0  0
   -7.0550    2.2213  -25.9405 N   0  0  0  0  0  0  0  0  0  0  0  0
   -6.8578    3.3541  -25.2451 N   0  0  0  0  0  0  0  0  0  0  0  0
   -6.7714    2.9660  -23.9769 C   0  0  0  0  0  0  0  0  0  0  0  0
   -6.9405    1.5781  -23.8439 C   0  0  0  0  0  0  0  0  0  0  0  0
   -7.1437    1.1349  -25.1294 C   0  0  0  0  0  0  0  0  0  0  0  0
   -7.3334   -0.2749  -25.5977 C   0  0  0  0  0  0  0  0  0  0  0  0
   -8.1393   -1.0602  -24.6743 N   0  0  0  0  0  0  0  0  0  0  0  0
   -7.5856   -2.2828  -24.1185 C   0  0  0  0  0  0  0  0  0  0  0  0
   -8.2338   -2.6344  -22.7548 C   0  0  2  0  0  0  0  0  0  0  0  0
   -7.8810   -1.5347  -21.7209 C   0  0  0  0  0  0  0  0  0  0  0  0
   -8.4164   -0.4570  -21.5743 O   0  0  0  0  0  0  0  0  0  0  0  0
   -6.8132   -1.9785  -20.9710 N   0  0  0  0  0  0  0  0  0  0  0  0
   -6.1765   -1.1544  -20.0031 C   0  0  0  0  0  0  0  0  0  0  0  0
   -6.5487   -1.2410  -18.6866 C   0  0  0  0  0  0  0  0  0  0  0  0
   -6.0146   -0.4997  -17.6825 N   0  0  0  0  0  0  0  0  0  0  0  0
   -5.0741    0.3591  -18.0011 C   0  0  0  0  0  0  0  0  0  0  0  0
   -4.5710    0.5391  -19.3230 C   0  0  0  0  0  0  0  0  0  0  0  0
   -3.5532    1.4860  -19.6317 C   0  0  0  0  0  0  0  0  0  0  0  0
   -3.1031    1.6256  -20.9159 C   0  0  0  0  0  0  0  0  0  0  0  0
   -3.6380    0.8286  -21.9542 C   0  0  0  0  0  0  0  0  0  0  0  0
   -4.6174   -0.0956  -21.6798 C   0  0  0  0  0  0  0  0  0  0  0  0
   -5.1230   -0.2526  -20.3602 C   0  0  0  0  0  0  0  0  0  0  0  0
   -6.3516   -3.2996  -21.3539 C   0  0  0  0  0  0  0  0  0  0  0  0
   -7.5627   -3.8730  -22.1021 C   0  0  2  0  0  0  0  0  0  0  0  0
   -7.2354   -5.0309  -23.0350 C   0  0  0  0  0  0  0  0  0  0  0  0
   -9.7291   -2.7038  -22.9776 C   0  0  0  0  0  0  0  0  0  0  0  0
  -10.5545   -3.5810  -22.2665 C   0  0  0  0  0  0  0  0  0  0  0  0
  -11.9234   -3.4931  -22.4168 C   0  0  0  0  0  0  0  0  0  0  0  0
  -12.6984   -4.3262  -21.7013 F   0  0  0  0  0  0  0  0  0  0  0  0
  -12.5327   -2.5680  -23.2602 C   0  0  0  0  0  0  0  0  0  0  0  0
  -11.7154   -1.7140  -23.9773 C   0  0  0  0  0  0  0  0  0  0  0  0
  -10.3248   -1.7730  -23.8461 C   0  0  0  0  0  0  0  0  0  0  0  0
   -9.4855   -0.8158  -24.6493 C   0  0  0  0  0  0  0  0  0  0  0  0
   -9.9823    0.1172  -25.2628 O   0  0  0  0  0  0  0  0  0  0  0  0
   -9.1594    3.2410  -27.3774 H   0  0  0  0  0  0  0  0  0  0  0  0
   -9.2682    1.4738  -27.4609 H   0  0  0  0  0  0  0  0  0  0  0  0
   -8.7866    2.4130  -28.8959 H   0  0  0  0  0  0  0  0  0  0  0  0
   -6.6838    3.1233  -27.7493 H   0  0  0  0  0  0  0  0  0  0  0  0
   -6.7775    1.3787  -27.8200 H   0  0  0  0  0  0  0  0  0  0  0  0
   -6.5870    3.6878  -23.1935 H   0  0  0  0  0  0  0  0  0  0  0  0
   -6.9301    0.9658  -22.9482 H   0  0  0  0  0  0  0  0  0  0  0  0
   -7.7729   -0.3139  -26.6053 H   0  0  0  0  0  0  0  0  0  0  0  0
   -6.3485   -0.7548  -25.6496 H   0  0  0  0  0  0  0  0  0  0  0  0
   -7.7287   -3.1187  -24.8210 H   0  0  0  0  0  0  0  0  0  0  0  0
   -6.5096   -2.1357  -23.9798 H   0  0  0  0  0  0  0  0  0  0  0  0
   -7.3329   -1.9355  -18.3933 H   0  0  0  0  0  0  0  0  0  0  0  0
   -4.6546    0.9632  -17.1936 H   0  0  0  0  0  0  0  0  0  0  0  0
   -3.1523    2.1063  -18.8307 H   0  0  0  0  0  0  0  0  0  0  0  0
   -2.3295    2.3525  -21.1528 H   0  0  0  0  0  0  0  0  0  0  0  0
   -3.2730    0.9412  -22.9711 H   0  0  0  0  0  0  0  0  0  0  0  0
   -5.0285   -0.7065  -22.4795 H   0  0  0  0  0  0  0  0  0  0  0  0
   -6.0900   -3.8823  -20.4683 H   0  0  0  0  0  0  0  0  0  0  0  0
   -5.4662   -3.2736  -22.0126 H   0  0  0  0  0  0  0  0  0  0  0  0
   -8.2394   -4.2394  -21.3266 H   0  0  0  0  0  0  0  0  0  0  0  0
   -6.8801   -5.9040  -22.4790 H   0  0  0  0  0  0  0  0  0  0  0  0
   -8.1099   -5.3385  -23.6177 H   0  0  0  0  0  0  0  0  0  0  0  0
   -6.4547   -4.7541  -23.7501 H   0  0  0  0  0  0  0  0  0  0  0  0
  -10.1524   -4.3339  -21.5958 H   0  0  0  0  0  0  0  0  0  0  0  0
  -13.6179   -2.5303  -23.3263 H   0  0  0  0  0  0  0  0  0  0  0  0
  -12.1505   -0.9850  -24.6517 H   0  0  0  0  0  0  0  0  0  0  0  0
  1  2  1  0
  2  3  1  0
  3  4  1  0
  4  5  2  0
  5  6  1  0
  6  7  2  0
  7  8  1  0
  8  9  1  0
  9 10  1  0
 11 10  1  6
 11 12  1  0
 12 13  2  0
 12 14  1  0
 14 15  1  0
 15 16  2  0
 16 17  1  0
 17 18  2  0
 18 19  1  0
 19 20  2  0
 20 21  1  0
 21 22  2  0
 22 23  1  0
 23 24  2  0
 14 25  1  0
 25 26  1  0
 26 27  1  0
 11 28  1  0
 28 29  2  0
 29 30  1  0
 30 31  1  0
 30 32  2  0
 32 33  1  0
 33 34  2  0
 34 35  1  0
 35 36  2  0
  7  3  1  0
 35  9  1  0
 26 11  1  0
 34 28  1  0
 24 15  1  0
 24 19  1  0
  1 37  1  0
  1 38  1  0
  1 39  1  0
  2 40  1  0
  2 41  1  0
  5 42  1  0
  6 43  1  0
  8 44  1  0
  8 45  1  0
 10 46  1  0
 10 47  1  0
 16 48  1  0
 18 49  1  0
 20 50  1  0
 21 51  1  0
 22 52  1  0
 23 53  1  0
 25 54  1  0
 25 55  1  0
 26 56  1  1
 27 57  1  0
 27 58  1  0
 27 59  1  0
 29 60  1  0
 32 61  1  0
 33 62  1  0
M  END
>  <RMSD>  (119) 
0.05714154445067804

$$$$

     RDKit          3D

 57 62  0  0  0  0  0  0  0  0999 V2000
    7.0680   -3.2834   23.5103 C   0  0  0  0  0  0  0  0  0  0  0  0
    7.3592   -2.2816   22.3990 C   0  0  1  0  0  0  0  0  0  0  0  0
    6.1425   -1.9260   21.5341 C   0  0  0  0  0  0  0  0  0  0  0  0
    6.5299   -0.6587   20.9433 N   0  0  0  0  0  0  0  0  0  0  0  0
    5.8809   -0.0603   19.8289 C   0  0  0  0  0  0  0  0  0  0  0  0
    6.3062   -0.3465   18.5570 C   0  0  0  0  0  0  0  0  0  0  0  0
    5.7651    0.1755   17.4268 N   0  0  0  0  0  0  0  0  0  0  0  0
    4.7633    1.0119   17.5686 C   0  0  0  0  0  0  0  0  0  0  0  0
    4.2031    1.3836   18.8246 C   0  0  0  0  0  0  0  0  0  0  0  0
    3.1175    2.2996   18.9423 C   0  0  0  0  0  0  0  0  0  0  0  0
    2.6095    2.6193   20.1696 C   0  0  0  0  0  0  0  0  0  0  0  0
    3.1506    2.0420   21.3403 C   0  0  0  0  0  0  0  0  0  0  0  0
    4.2003    1.1584   21.2545 C   0  0  0  0  0  0  0  0  0  0  0  0
    4.7631    0.8176   19.9969 C   0  0  0  0  0  0  0  0  0  0  0  0
    7.5447   -0.0180   21.6287 C   0  0  0  0  0  0  0  0  0  0  0  0
    8.0173    1.0471   21.3060 O   0  0  0  0  0  0  0  0  0  0  0  0
    7.9269   -0.9065   22.8432 C   0  0  1  0  0  0  0  0  0  0  0  0
    7.2103   -0.3770   24.1155 C   0  0  0  0  0  0  0  0  0  0  0  0
    7.6780    0.9419   24.4824 N   0  0  0  0  0  0  0  0  0  0  0  0
    6.7752    1.8441   25.1727 C   0  0  0  0  0  0  0  0  0  0  0  0
    6.4621    3.0989   24.3937 C   0  0  0  0  0  0  0  0  0  0  0  0
    6.4113    4.3326   25.0293 C   0  0  0  0  0  0  0  0  0  0  0  0
    6.1052    5.4295   24.2414 C   0  0  0  0  0  0  0  0  0  0  0  0
    5.8628    5.3297   22.9357 N   0  0  0  0  0  0  0  0  0  0  0  0
    5.9275    4.0998   22.4371 C   0  0  0  0  0  0  0  0  0  0  0  0
    6.2001    2.9720   23.0955 N   0  0  0  0  0  0  0  0  0  0  0  0
    8.9994    1.2871   24.4289 C   0  0  0  0  0  0  0  0  0  0  0  0
    9.4056    2.3553   24.8590 O   0  0  0  0  0  0  0  0  0  0  0  0
    9.9207    0.2625   23.8260 C   0  0  0  0  0  0  0  0  0  0  0  0
   11.2980    0.4371   23.9778 C   0  0  0  0  0  0  0  0  0  0  0  0
   12.1901   -0.4701   23.4381 C   0  0  0  0  0  0  0  0  0  0  0  0
   11.6711   -1.5648   22.7520 C   0  0  0  0  0  0  0  0  0  0  0  0
   12.5218   -2.4538   22.2112 F   0  0  0  0  0  0  0  0  0  0  0  0
   10.3165   -1.7678   22.5873 C   0  0  0  0  0  0  0  0  0  0  0  0
    9.4135   -0.8394   23.1168 C   0  0  0  0  0  0  0  0  0  0  0  0
    6.7876   -4.2609   23.1028 H   0  0  0  0  0  0  0  0  0  0  0  0
    7.9396   -3.4279   24.1588 H   0  0  0  0  0  0  0  0  0  0  0  0
    6.2441   -2.9415   24.1468 H   0  0  0  0  0  0  0  0  0  0  0  0
    8.0795   -2.7365   21.7129 H   0  0  0  0  0  0  0  0  0  0  0  0
    5.9512   -2.6705   20.7565 H   0  0  0  0  0  0  0  0  0  0  0  0
    5.2329   -1.8469   22.1565 H   0  0  0  0  0  0  0  0  0  0  0  0
    7.1430   -1.0271   18.4090 H   0  0  0  0  0  0  0  0  0  0  0  0
    4.3348    1.4402   16.6590 H   0  0  0  0  0  0  0  0  0  0  0  0
    2.7066    2.7450   18.0384 H   0  0  0  0  0  0  0  0  0  0  0  0
    1.7871    3.3249   20.2594 H   0  0  0  0  0  0  0  0  0  0  0  0
    2.7473    2.3076   22.3130 H   0  0  0  0  0  0  0  0  0  0  0  0
    4.6283    0.7346   22.1595 H   0  0  0  0  0  0  0  0  0  0  0  0
    7.3748   -1.0742   24.9533 H   0  0  0  0  0  0  0  0  0  0  0  0
    6.1315   -0.3141   23.9228 H   0  0  0  0  0  0  0  0  0  0  0  0
    5.8449    1.3024   25.3664 H   0  0  0  0  0  0  0  0  0  0  0  0
    7.1956    2.1042   26.1447 H   0  0  0  0  0  0  0  0  0  0  0  0
    6.6054    4.4194   26.0914 H   0  0  0  0  0  0  0  0  0  0  0  0
    6.0539    6.4237   24.6781 H   0  0  0  0  0  0  0  0  0  0  0  0
    5.7153    3.9928   21.3765 H   0  0  0  0  0  0  0  0  0  0  0  0
   11.6665    1.2965   24.5266 H   0  0  0  0  0  0  0  0  0  0  0  0
   13.2671   -0.3483   23.5251 H   0  0  0  0  0  0  0  0  0  0  0  0
    9.9889   -2.6495   22.0456 H   0  0  0  0  0  0  0  0  0  0  0  0
  1  2  1  0
  2  3  1  0
  3  4  1  0
  4  5  1  0
  5  6  2  0
  6  7  1  0
  7  8  2  0
  8  9  1  0
  9 10  2  0
 10 11  1  0
 11 12  2  0
 12 13  1  0
 13 14  2  0
  4 15  1  0
 15 16  2  0
 15 17  1  0
 17 18  1  1
 18 19  1  0
 19 20  1  0
 20 21  1  0
 21 22  2  0
 22 23  1  0
 23 24  2  0
 24 25  1  0
 25 26  2  0
 19 27  1  0
 27 28  2  0
 27 29  1  0
 29 30  2  0
 30 31  1  0
 31 32  2  0
 32 33  1  0
 32 34  1  0
 34 35  2  0
 17  2  1  0
 26 21  1  0
 35 29  1  0
 14  5  1  0
 35 17  1  0
 14  9  1  0
  1 36  1  0
  1 37  1  0
  1 38  1  0
  2 39  1  6
  3 40  1  0
  3 41  1  0
  6 42  1  0
  8 43  1  0
 10 44  1  0
 11 45  1  0
 12 46  1  0
 13 47  1  0
 18 48  1  0
 18 49  1  0
 20 50  1  0
 20 51  1  0
 22 52  1  0
 23 53  1  0
 25 54  1  0
 30 55  1  0
 31 56  1  0
 34 57  1  0
M  END
>  <RMSD>  (120) 
0.1720302151079789

$$$$

     RDKit          3D

 44 47  0  0  0  0  0  0  0  0999 V2000
   -8.7841   -2.7525  -19.9227 O   0  0  0  0  0  0  0  0  0  0  0  0
   -7.9048   -2.8093  -20.7613 C   0  0  0  0  0  0  0  0  0  0  0  0
   -7.1261   -1.5615  -21.1123 C   0  0  0  0  0  0  0  0  0  0  0  0
   -6.2330   -1.0795  -20.0042 C   0  0  0  0  0  0  0  0  0  0  0  0
   -6.5735   -1.2011  -18.6772 C   0  0  0  0  0  0  0  0  0  0  0  0
   -5.9374   -0.5617  -17.6566 N   0  0  0  0  0  0  0  0  0  0  0  0
   -4.9701    0.2536  -17.9953 C   0  0  0  0  0  0  0  0  0  0  0  0
   -4.5495    0.5046  -19.3287 C   0  0  0  0  0  0  0  0  0  0  0  0
   -3.6347    1.5332  -19.6519 C   0  0  0  0  0  0  0  0  0  0  0  0
   -3.1567    1.6694  -20.9243 C   0  0  0  0  0  0  0  0  0  0  0  0
   -3.5909    0.7779  -21.9347 C   0  0  0  0  0  0  0  0  0  0  0  0
   -4.5603   -0.1568  -21.6646 C   0  0  0  0  0  0  0  0  0  0  0  0
   -5.1116   -0.2717  -20.3589 C   0  0  0  0  0  0  0  0  0  0  0  0
   -7.5749   -3.9852  -21.4235 N   0  0  0  0  0  0  0  0  0  0  0  0
   -7.1794   -3.9154  -22.8384 C   0  0  0  0  0  0  0  0  0  0  0  0
   -8.2975   -3.2637  -23.6617 C   0  0  0  0  0  0  0  0  0  0  0  0
   -9.6775   -3.6649  -23.1159 C   0  0  0  0  0  0  0  0  0  0  0  0
  -10.4350   -2.5215  -22.3826 C   0  0  0  0  0  0  0  0  0  0  0  0
  -11.3592   -2.3186  -23.5963 C   0  0  0  0  0  0  0  0  0  0  0  0
  -10.7576   -3.6061  -24.2058 C   0  0  0  0  0  0  0  0  0  0  0  0
   -9.6461   -4.9974  -22.3443 C   0  0  0  0  0  0  0  0  0  0  0  0
   -8.5514   -5.0641  -21.2493 C   0  0  0  0  0  0  0  0  0  0  0  0
   -7.8737   -0.7692  -21.3010 H   0  0  0  0  0  0  0  0  0  0  0  0
   -6.5540   -1.7196  -22.0207 H   0  0  0  0  0  0  0  0  0  0  0  0
   -7.4315   -1.8051  -18.3912 H   0  0  0  0  0  0  0  0  0  0  0  0
   -4.4680    0.7897  -17.1935 H   0  0  0  0  0  0  0  0  0  0  0  0
   -3.3519    2.2198  -18.8637 H   0  0  0  0  0  0  0  0  0  0  0  0
   -2.4518    2.4629  -21.1639 H   0  0  0  0  0  0  0  0  0  0  0  0
   -3.1883    0.8634  -22.9414 H   0  0  0  0  0  0  0  0  0  0  0  0
   -4.9075   -0.8168  -22.4576 H   0  0  0  0  0  0  0  0  0  0  0  0
   -7.0582   -4.9513  -23.1725 H   0  0  0  0  0  0  0  0  0  0  0  0
   -6.2016   -3.4375  -22.9603 H   0  0  0  0  0  0  0  0  0  0  0  0
   -8.2247   -2.1678  -23.6406 H   0  0  0  0  0  0  0  0  0  0  0  0
   -8.1815   -3.5609  -24.7132 H   0  0  0  0  0  0  0  0  0  0  0  0
  -10.9531   -2.9146  -21.5139 H   0  0  0  0  0  0  0  0  0  0  0  0
   -9.8346   -1.6652  -22.0658 H   0  0  0  0  0  0  0  0  0  0  0  0
  -12.4356   -2.3457  -23.4019 H   0  0  0  0  0  0  0  0  0  0  0  0
  -11.1535   -1.4033  -24.1597 H   0  0  0  0  0  0  0  0  0  0  0  0
  -11.4286   -4.4624  -24.1464 H   0  0  0  0  0  0  0  0  0  0  0  0
  -10.3481   -3.5432  -25.2132 H   0  0  0  0  0  0  0  0  0  0  0  0
   -9.5013   -5.8051  -23.0805 H   0  0  0  0  0  0  0  0  0  0  0  0
  -10.6326   -5.1576  -21.8908 H   0  0  0  0  0  0  0  0  0  0  0  0
   -8.0127   -6.0177  -21.3023 H   0  0  0  0  0  0  0  0  0  0  0  0
   -8.9378   -4.9604  -20.2345 H   0  0  0  0  0  0  0  0  0  0  0  0
  1  2  2  0
  2  3  1  0
  3  4  1  0
  4  5  2  0
  5  6  1  0
  6  7  2  0
  7  8  1  0
  8  9  2  0
  9 10  1  0
 10 11  2  0
 11 12  1  0
 12 13  2  0
  2 14  1  0
 14 15  1  0
 15 16  1  0
 16 17  1  0
 17 18  1  0
 18 19  1  0
 19 20  1  0
 17 21  1  0
 21 22  1  0
 13  4  1  0
 22 14  1  0
 13  8  1  0
 20 17  1  0
  3 23  1  0
  3 24  1  0
  5 25  1  0
  7 26  1  0
  9 27  1  0
 10 28  1  0
 11 29  1  0
 12 30  1  0
 15 31  1  0
 15 32  1  0
 16 33  1  0
 16 34  1  0
 18 35  1  0
 18 36  1  0
 19 37  1  0
 19 38  1  0
 20 39  1  0
 20 40  1  0
 21 41  1  0
 21 42  1  0
 22 43  1  0
 22 44  1  0
M  END
>  <RMSD>  (121) 
0.15433688657553704

$$$$

     RDKit          3D

 44 47  0  0  0  0  0  0  0  0999 V2000
   -8.9000   -1.4680  -20.7502 O   0  0  0  0  0  0  0  0  0  0  0  0
   -8.0738   -1.9911  -21.4774 C   0  0  0  0  0  0  0  0  0  0  0  0
   -6.6435   -2.2355  -20.9859 C   0  0  0  0  0  0  0  0  0  0  0  0
   -6.0974   -1.2440  -19.9900 C   0  0  0  0  0  0  0  0  0  0  0  0
   -6.4972   -1.2748  -18.6756 C   0  0  0  0  0  0  0  0  0  0  0  0
   -6.0481   -0.4499  -17.6894 N   0  0  0  0  0  0  0  0  0  0  0  0
   -5.1187    0.4105  -18.0282 C   0  0  0  0  0  0  0  0  0  0  0  0
   -4.5705    0.5290  -19.3313 C   0  0  0  0  0  0  0  0  0  0  0  0
   -3.5390    1.4547  -19.6267 C   0  0  0  0  0  0  0  0  0  0  0  0
   -3.0936    1.6111  -20.9085 C   0  0  0  0  0  0  0  0  0  0  0  0
   -3.6526    0.8285  -21.9417 C   0  0  0  0  0  0  0  0  0  0  0  0
   -4.6285   -0.1024  -21.6745 C   0  0  0  0  0  0  0  0  0  0  0  0
   -5.1052   -0.2891  -20.3533 C   0  0  0  0  0  0  0  0  0  0  0  0
   -8.4283   -2.5168  -22.7184 N   0  0  0  0  0  0  0  0  0  0  0  0
   -7.8305   -2.1788  -24.0045 C   0  0  0  0  0  0  0  0  0  0  0  0
   -8.6449   -1.0842  -24.7176 C   0  0  0  0  0  0  0  0  0  0  0  0
  -10.1759   -1.2802  -24.5387 C   0  0  0  0  0  0  0  0  0  0  0  0
  -10.7401   -0.2229  -23.5985 C   0  0  0  0  0  0  0  0  0  0  0  0
  -11.9827    0.5366  -23.9540 C   0  0  0  0  0  0  0  0  0  0  0  0
  -10.6430    1.2357  -23.9372 C   0  0  0  0  0  0  0  0  0  0  0  0
  -10.5198   -2.7015  -24.0488 C   0  0  0  0  0  0  0  0  0  0  0  0
   -9.7488   -3.1315  -22.7931 C   0  0  0  0  0  0  0  0  0  0  0  0
   -5.9582   -2.3957  -21.8202 H   0  0  0  0  0  0  0  0  0  0  0  0
   -6.7061   -3.2215  -20.5024 H   0  0  0  0  0  0  0  0  0  0  0  0
   -7.2397   -1.9967  -18.3501 H   0  0  0  0  0  0  0  0  0  0  0  0
   -4.7364    1.0722  -17.2502 H   0  0  0  0  0  0  0  0  0  0  0  0
   -3.0990    1.9971  -18.7966 H   0  0  0  0  0  0  0  0  0  0  0  0
   -2.3592    2.3773  -21.1457 H   0  0  0  0  0  0  0  0  0  0  0  0
   -3.2755    0.9314  -22.9531 H   0  0  0  0  0  0  0  0  0  0  0  0
   -5.0562   -0.6733  -22.4928 H   0  0  0  0  0  0  0  0  0  0  0  0
   -7.8342   -3.0710  -24.6411 H   0  0  0  0  0  0  0  0  0  0  0  0
   -6.7858   -1.8807  -23.8651 H   0  0  0  0  0  0  0  0  0  0  0  0
   -8.3844   -1.0695  -25.7831 H   0  0  0  0  0  0  0  0  0  0  0  0
   -8.3688   -0.1011  -24.3204 H   0  0  0  0  0  0  0  0  0  0  0  0
  -10.6537   -1.1457  -25.5208 H   0  0  0  0  0  0  0  0  0  0  0  0
  -10.5663   -0.4245  -22.5417 H   0  0  0  0  0  0  0  0  0  0  0  0
  -12.7184    0.7574  -23.1843 H   0  0  0  0  0  0  0  0  0  0  0  0
  -12.3971    0.3936  -24.9494 H   0  0  0  0  0  0  0  0  0  0  0  0
  -10.4180    1.9221  -23.1221 H   0  0  0  0  0  0  0  0  0  0  0  0
  -10.2142    1.4989  -24.9058 H   0  0  0  0  0  0  0  0  0  0  0  0
  -11.5944   -2.7866  -23.8411 H   0  0  0  0  0  0  0  0  0  0  0  0
  -10.3137   -3.4206  -24.8526 H   0  0  0  0  0  0  0  0  0  0  0  0
  -10.2627   -2.8358  -21.8723 H   0  0  0  0  0  0  0  0  0  0  0  0
   -9.6551   -4.2325  -22.7866 H   0  0  0  0  0  0  0  0  0  0  0  0
  1  2  2  0
  2  3  1  0
  3  4  1  0
  4  5  2  0
  5  6  1  0
  6  7  2  0
  7  8  1  0
  8  9  2  0
  9 10  1  0
 10 11  2  0
 11 12  1  0
 12 13  2  0
  2 14  1  0
 14 15  1  0
 15 16  1  0
 16 17  1  0
 17 18  1  0
 18 19  1  0
 19 20  1  0
 17 21  1  0
 21 22  1  0
 13  4  1  0
 22 14  1  0
 13  8  1  0
 20 18  1  0
  3 23  1  0
  3 24  1  0
  5 25  1  0
  7 26  1  0
  9 27  1  0
 10 28  1  0
 11 29  1  0
 12 30  1  0
 15 31  1  0
 15 32  1  0
 16 33  1  0
 16 34  1  0
 17 35  1  0
 18 36  1  0
 19 37  1  0
 19 38  1  0
 20 39  1  0
 20 40  1  0
 21 41  1  0
 21 42  1  0
 22 43  1  0
 22 44  1  0
M  END
>  <RMSD>  (122) 
0.06482206577678166

$$$$

     RDKit          3D

 57 61  0  0  0  0  0  0  0  0999 V2000
   -6.7631    2.6512  -23.2215 C   0  0  0  0  0  0  0  0  0  0  0  0
   -7.3109    1.4741  -23.8586 N   0  0  0  0  0  0  0  0  0  0  0  0
   -6.8331    1.0637  -25.0523 C   0  0  0  0  0  0  0  0  0  0  0  0
   -6.0157    1.6969  -25.7056 O   0  0  0  0  0  0  0  0  0  0  0  0
   -7.3279   -0.2868  -25.5806 C   0  0  0  0  0  0  0  0  0  0  0  0
   -8.1459   -1.0830  -24.6890 N   0  0  0  0  0  0  0  0  0  0  0  0
   -7.5822   -2.2926  -24.1217 C   0  0  0  0  0  0  0  0  0  0  0  0
   -8.2298   -2.6385  -22.7555 C   0  0  2  0  0  0  0  0  0  0  0  0
   -7.8766   -1.5344  -21.7260 C   0  0  0  0  0  0  0  0  0  0  0  0
   -8.4079   -0.4495  -21.5916 O   0  0  0  0  0  0  0  0  0  0  0  0
   -6.8123   -1.9806  -20.9705 N   0  0  0  0  0  0  0  0  0  0  0  0
   -6.1769   -1.1537  -20.0042 C   0  0  0  0  0  0  0  0  0  0  0  0
   -6.5468   -1.2431  -18.6871 C   0  0  0  0  0  0  0  0  0  0  0  0
   -6.0145   -0.5015  -17.6824 N   0  0  0  0  0  0  0  0  0  0  0  0
   -5.0749    0.3596  -18.0000 C   0  0  0  0  0  0  0  0  0  0  0  0
   -4.5716    0.5407  -19.3218 C   0  0  0  0  0  0  0  0  0  0  0  0
   -3.5536    1.4876  -19.6294 C   0  0  0  0  0  0  0  0  0  0  0  0
   -3.0981    1.6212  -20.9140 C   0  0  0  0  0  0  0  0  0  0  0  0
   -3.6265    0.8172  -21.9516 C   0  0  0  0  0  0  0  0  0  0  0  0
   -4.6203   -0.0913  -21.6830 C   0  0  0  0  0  0  0  0  0  0  0  0
   -5.1273   -0.2477  -20.3618 C   0  0  0  0  0  0  0  0  0  0  0  0
   -6.3444   -3.3047  -21.3497 C   0  0  0  0  0  0  0  0  0  0  0  0
   -7.5580   -3.8720  -22.1017 C   0  0  2  0  0  0  0  0  0  0  0  0
   -7.2465   -5.0442  -23.0262 C   0  0  0  0  0  0  0  0  0  0  0  0
   -6.7884   -6.1831  -22.3263 O   0  0  0  0  0  0  0  0  0  0  0  0
   -9.7243   -2.7174  -22.9785 C   0  0  0  0  0  0  0  0  0  0  0  0
  -10.5506   -3.5908  -22.2605 C   0  0  0  0  0  0  0  0  0  0  0  0
  -11.9254   -3.5103  -22.3984 C   0  0  0  0  0  0  0  0  0  0  0  0
  -12.9256   -4.5723  -21.4472 Cl  0  0  0  0  0  0  0  0  0  0  0  0
  -12.5242   -2.5844  -23.2554 C   0  0  0  0  0  0  0  0  0  0  0  0
  -11.7104   -1.7320  -23.9807 C   0  0  0  0  0  0  0  0  0  0  0  0
  -10.3216   -1.7944  -23.8532 C   0  0  0  0  0  0  0  0  0  0  0  0
   -9.4910   -0.8382  -24.6617 C   0  0  0  0  0  0  0  0  0  0  0  0
   -9.9728    0.1222  -25.2477 O   0  0  0  0  0  0  0  0  0  0  0  0
   -7.2928    2.8053  -22.2794 H   0  0  0  0  0  0  0  0  0  0  0  0
   -5.6996    2.5091  -22.9996 H   0  0  0  0  0  0  0  0  0  0  0  0
   -6.8665    3.5421  -23.8494 H   0  0  0  0  0  0  0  0  0  0  0  0
   -8.1035    1.0194  -23.4273 H   0  0  0  0  0  0  0  0  0  0  0  0
   -7.8653   -0.1100  -26.5187 H   0  0  0  0  0  0  0  0  0  0  0  0
   -6.4315   -0.8611  -25.8352 H   0  0  0  0  0  0  0  0  0  0  0  0
   -6.5076   -2.1332  -23.9844 H   0  0  0  0  0  0  0  0  0  0  0  0
   -7.7173   -3.1325  -24.8196 H   0  0  0  0  0  0  0  0  0  0  0  0
   -7.3294   -1.9378  -18.3903 H   0  0  0  0  0  0  0  0  0  0  0  0
   -4.6573    0.9647  -17.1925 H   0  0  0  0  0  0  0  0  0  0  0  0
   -3.1550    2.1093  -18.8286 H   0  0  0  0  0  0  0  0  0  0  0  0
   -2.3300    2.3518  -21.1558 H   0  0  0  0  0  0  0  0  0  0  0  0
   -3.2749    0.9422  -22.9743 H   0  0  0  0  0  0  0  0  0  0  0  0
   -5.0342   -0.7009  -22.4827 H   0  0  0  0  0  0  0  0  0  0  0  0
   -6.0829   -3.8894  -20.4655 H   0  0  0  0  0  0  0  0  0  0  0  0
   -5.4544   -3.2790  -22.0023 H   0  0  0  0  0  0  0  0  0  0  0  0
   -8.2322   -4.2465  -21.3289 H   0  0  0  0  0  0  0  0  0  0  0  0
   -6.4436   -4.7646  -23.7106 H   0  0  0  0  0  0  0  0  0  0  0  0
   -8.1164   -5.2855  -23.6560 H   0  0  0  0  0  0  0  0  0  0  0  0
   -7.5629   -6.5911  -21.9171 H   0  0  0  0  0  0  0  0  0  0  0  0
  -10.1329   -4.3363  -21.5917 H   0  0  0  0  0  0  0  0  0  0  0  0
  -13.6078   -2.5356  -23.3301 H   0  0  0  0  0  0  0  0  0  0  0  0
  -12.1403   -1.0004  -24.6574 H   0  0  0  0  0  0  0  0  0  0  0  0
  1  2  1  0
  2  3  1  0
  3  4  2  0
  3  5  1  0
  5  6  1  0
  6  7  1  0
  8  7  1  6
  8  9  1  0
  9 10  2  0
  9 11  1  0
 11 12  1  0
 12 13  2  0
 13 14  1  0
 14 15  2  0
 15 16  1  0
 16 17  2  0
 17 18  1  0
 18 19  2  0
 19 20  1  0
 20 21  2  0
 11 22  1  0
 22 23  1  0
 23 24  1  0
 24 25  1  0
  8 26  1  0
 26 27  2  0
 27 28  1  0
 28 29  1  0
 28 30  2  0
 30 31  1  0
 31 32  2  0
 32 33  1  0
 33 34  2  0
 33  6  1  0
 23  8  1  0
 32 26  1  0
 21 12  1  0
 21 16  1  0
  1 35  1  0
  1 36  1  0
  1 37  1  0
  2 38  1  0
  5 39  1  0
  5 40  1  0
  7 41  1  0
  7 42  1  0
 13 43  1  0
 15 44  1  0
 17 45  1  0
 18 46  1  0
 19 47  1  0
 20 48  1  0
 22 49  1  0
 22 50  1  0
 23 51  1  1
 24 52  1  0
 24 53  1  0
 25 54  1  0
 27 55  1  0
 30 56  1  0
 31 57  1  0
M  END
>  <RMSD>  (123) 
0.056813323235607456

$$$$

     RDKit          3D

 60 65  0  0  0  0  0  0  0  0999 V2000
    6.6044   -5.5359   23.8839 C   0  0  0  0  0  0  0  0  0  0  0  0
    6.8537   -4.5701   22.8958 O   0  0  0  0  0  0  0  0  0  0  0  0
    7.1667   -3.3189   23.4543 C   0  0  0  0  0  0  0  0  0  0  0  0
    7.3978   -2.3312   22.3236 C   0  0  1  0  0  0  0  0  0  0  0  0
    6.1277   -1.9709   21.5240 C   0  0  0  0  0  0  0  0  0  0  0  0
    6.4996   -0.6934   20.9317 N   0  0  0  0  0  0  0  0  0  0  0  0
    5.8585   -0.0886   19.8212 C   0  0  0  0  0  0  0  0  0  0  0  0
    6.3153   -0.3354   18.5517 C   0  0  0  0  0  0  0  0  0  0  0  0
    5.7795    0.1991   17.4244 N   0  0  0  0  0  0  0  0  0  0  0  0
    4.7622    1.0148   17.5733 C   0  0  0  0  0  0  0  0  0  0  0  0
    4.1897    1.3645   18.8308 C   0  0  0  0  0  0  0  0  0  0  0  0
    3.1075    2.2790   18.9436 C   0  0  0  0  0  0  0  0  0  0  0  0
    2.6043    2.6147   20.1695 C   0  0  0  0  0  0  0  0  0  0  0  0
    3.1575    2.0537   21.3425 C   0  0  0  0  0  0  0  0  0  0  0  0
    4.2004    1.1623   21.2602 C   0  0  0  0  0  0  0  0  0  0  0  0
    4.7469    0.7980   20.0005 C   0  0  0  0  0  0  0  0  0  0  0  0
    7.6570   -0.1513   21.4583 C   0  0  0  0  0  0  0  0  0  0  0  0
    8.2618    0.7829   20.9728 O   0  0  0  0  0  0  0  0  0  0  0  0
    8.0084   -0.9599   22.7335 C   0  0  1  0  0  0  0  0  0  0  0  0
    7.2770   -0.3874   23.9841 C   0  0  0  0  0  0  0  0  0  0  0  0
    7.8563    0.8534   24.4522 N   0  0  0  0  0  0  0  0  0  0  0  0
    7.0559    2.0390   24.7258 C   0  0  0  0  0  0  0  0  0  0  0  0
    7.2256    3.0967   23.6784 C   0  0  0  0  0  0  0  0  0  0  0  0
    6.3395    3.3370   22.7358 N   0  0  0  0  0  0  0  0  0  0  0  0
    6.8796    4.3634   22.0029 C   0  0  0  0  0  0  0  0  0  0  0  0
    8.0713    4.7746   22.5378 C   0  0  0  0  0  0  0  0  0  0  0  0
    8.2950    3.9308   23.5924 N   0  0  0  0  0  0  0  0  0  0  0  0
    9.1988    0.9604   24.6445 C   0  0  0  0  0  0  0  0  0  0  0  0
    9.6828    1.9077   25.2647 O   0  0  0  0  0  0  0  0  0  0  0  0
   10.0428   -0.0785   23.9761 C   0  0  0  0  0  0  0  0  0  0  0  0
   11.4172   -0.0566   24.2176 C   0  0  0  0  0  0  0  0  0  0  0  0
   12.2782   -0.8035   23.4356 C   0  0  0  0  0  0  0  0  0  0  0  0
   11.7381   -1.5850   22.4129 C   0  0  0  0  0  0  0  0  0  0  0  0
   12.8108   -2.4520   21.3535 Cl  0  0  0  0  0  0  0  0  0  0  0  0
   10.3741   -1.6652   22.1996 C   0  0  0  0  0  0  0  0  0  0  0  0
    9.4950   -0.9369   23.0103 C   0  0  0  0  0  0  0  0  0  0  0  0
    6.3501   -6.4684   23.3752 H   0  0  0  0  0  0  0  0  0  0  0  0
    5.7635   -5.2444   24.5335 H   0  0  0  0  0  0  0  0  0  0  0  0
    7.4865   -5.7059   24.5222 H   0  0  0  0  0  0  0  0  0  0  0  0
    6.3383   -2.9739   24.0999 H   0  0  0  0  0  0  0  0  0  0  0  0
    8.0672   -3.3871   24.0906 H   0  0  0  0  0  0  0  0  0  0  0  0
    8.0874   -2.8054   21.6208 H   0  0  0  0  0  0  0  0  0  0  0  0
    5.8809   -2.7084   20.7530 H   0  0  0  0  0  0  0  0  0  0  0  0
    5.2498   -1.8779   22.1834 H   0  0  0  0  0  0  0  0  0  0  0  0
    7.1678   -0.9959   18.4054 H   0  0  0  0  0  0  0  0  0  0  0  0
    4.3431    1.4523   16.6661 H   0  0  0  0  0  0  0  0  0  0  0  0
    2.7113    2.7208   18.0324 H   0  0  0  0  0  0  0  0  0  0  0  0
    1.7880    3.3285   20.2538 H   0  0  0  0  0  0  0  0  0  0  0  0
    2.7677    2.3388   22.3160 H   0  0  0  0  0  0  0  0  0  0  0  0
    4.6374    0.7546   22.1681 H   0  0  0  0  0  0  0  0  0  0  0  0
    6.2255   -0.2039   23.7497 H   0  0  0  0  0  0  0  0  0  0  0  0
    7.3259   -1.1252   24.7961 H   0  0  0  0  0  0  0  0  0  0  0  0
    7.3474    2.4182   25.7100 H   0  0  0  0  0  0  0  0  0  0  0  0
    6.0003    1.7623   24.7494 H   0  0  0  0  0  0  0  0  0  0  0  0
    6.3717    4.7135   21.1214 H   0  0  0  0  0  0  0  0  0  0  0  0
    8.8329    5.4681   22.1989 H   0  0  0  0  0  0  0  0  0  0  0  0
    9.0619    3.9693   24.2480 H   0  0  0  0  0  0  0  0  0  0  0  0
   11.7917    0.5842   25.0097 H   0  0  0  0  0  0  0  0  0  0  0  0
   13.3544   -0.7465   23.5690 H   0  0  0  0  0  0  0  0  0  0  0  0
   10.0027   -2.2686   21.3785 H   0  0  0  0  0  0  0  0  0  0  0  0
  1  2  1  0
  2  3  1  0
  3  4  1  0
  4  5  1  0
  5  6  1  0
  6  7  1  0
  7  8  2  0
  8  9  1  0
  9 10  2  0
 10 11  1  0
 11 12  2  0
 12 13  1  0
 13 14  2  0
 14 15  1  0
 15 16  2  0
  6 17  1  0
 17 18  2  0
 17 19  1  0
 19 20  1  1
 20 21  1  0
 21 22  1  0
 22 23  1  0
 23 24  2  0
 24 25  1  0
 25 26  2  0
 26 27  1  0
 21 28  1  0
 28 29  2  0
 28 30  1  0
 30 31  2  0
 31 32  1  0
 32 33  2  0
 33 34  1  0
 33 35  1  0
 35 36  2  0
 19  4  1  0
 27 23  1  0
 36 30  1  0
 16  7  1  0
 36 19  1  0
 16 11  1  0
  1 37  1  0
  1 38  1  0
  1 39  1  0
  3 40  1  0
  3 41  1  0
  4 42  1  6
  5 43  1  0
  5 44  1  0
  8 45  1  0
 10 46  1  0
 12 47  1  0
 13 48  1  0
 14 49  1  0
 15 50  1  0
 20 51  1  0
 20 52  1  0
 22 53  1  0
 22 54  1  0
 25 55  1  0
 26 56  1  0
 27 57  1  0
 31 58  1  0
 32 59  1  0
 35 60  1  0
M  END
>  <RMSD>  (124) 
0.187183594590026

$$$$

     RDKit          3D

 22 25  0  0  0  0  0  0  0  0999 V2000
    5.3242   -1.8081   22.1240 O   0  0  0  0  0  0  0  0  0  0  0  0
    6.4914   -1.4662   22.0555 C   0  0  0  0  0  0  0  0  0  0  0  0
    6.9027   -0.3589   21.0565 C   0  0  0  0  0  0  0  0  0  0  0  0
    5.8699   -0.1738   19.9708 C   0  0  0  0  0  0  0  0  0  0  0  0
    6.0295   -0.8077   18.7673 C   0  0  0  0  0  0  0  0  0  0  0  0
    5.2145   -0.6835   17.6873 N   0  0  0  0  0  0  0  0  0  0  0  0
    4.1585    0.0818   17.8284 C   0  0  0  0  0  0  0  0  0  0  0  0
    3.8176    0.7421   19.0416 C   0  0  0  0  0  0  0  0  0  0  0  0
    2.6281    1.5027   19.1720 C   0  0  0  0  0  0  0  0  0  0  0  0
    2.3162    2.1241   20.3506 C   0  0  0  0  0  0  0  0  0  0  0  0
    3.1911    2.0157   21.4519 C   0  0  0  0  0  0  0  0  0  0  0  0
    4.3509    1.2834   21.3531 C   0  0  0  0  0  0  0  0  0  0  0  0
    4.6936    0.6177   20.1458 C   0  0  0  0  0  0  0  0  0  0  0  0
    7.4672   -2.0571   22.8297 N   0  0  0  0  0  0  0  0  0  0  0  0
    7.2395   -3.3969   23.3783 C   0  0  0  0  0  0  0  0  0  0  0  0
    7.6139   -3.4705   24.8563 C   0  0  0  0  0  0  0  0  0  0  0  0
    8.9623   -2.8563   25.0686 C   0  0  0  0  0  0  0  0  0  0  0  0
    9.9880   -3.1506   26.4331 S   0  0  0  0  0  0  0  0  0  0  0  0
   11.1577   -2.0263   25.8431 C   0  0  0  0  0  0  0  0  0  0  0  0
   10.7751   -1.4659   24.6596 C   0  0  0  0  0  0  0  0  0  0  0  0
    9.5069   -1.9504   24.2141 C   0  0  0  0  0  0  0  0  0  0  0  0
    8.8148   -1.5203   22.9475 C   0  0  0  0  0  0  0  0  0  0  0  0
  1  2  2  0
  2  3  1  0
  3  4  1  0
  4  5  2  0
  5  6  1  0
  6  7  2  0
  7  8  1  0
  8  9  2  0
  9 10  1  0
 10 11  2  0
 11 12  1  0
 12 13  2  0
  2 14  1  0
 14 15  1  0
 15 16  1  0
 16 17  1  0
 17 18  1  0
 18 19  1  0
 19 20  2  0
 20 21  1  0
 21 22  1  0
 13  4  1  0
 22 14  1  0
 13  8  1  0
 21 17  2  0
M  END
>  <cnnaffinities>  (125) 
[5.09864, 5.09269, 5.05003, 5.10686, 5.23147]

>  <score>  (125) 
5.09864

>  <index>  (125) 
50

>  <Smiles>  (125) 
O=C(C(c1c(nc(c2c(c(c(c(c12)[H])[H])[H])[H])[H])[H])([H])[H])N1C(C(c2sc(c(c2C1([H])[H])[H])[H])([H])[H])([H])[H]

>  <h>  (125) 
<NA>

>  <Training>  (125) 
True

>  <Success>  (125) 
True

>  <enamine_searched>  (125) 
False

>  <enamine_id>  (125) 
nan

$$$$

     RDKit          3D

 55 60  0  0  0  0  0  0  0  0999 V2000
   -7.2327   -5.0341  -23.0349 C   0  0  0  0  0  0  0  0  0  0  0  0
   -7.5615   -3.8783  -22.0997 C   0  0  1  0  0  0  0  0  0  0  0  0
   -6.3528   -3.2993  -21.3548 C   0  0  0  0  0  0  0  0  0  0  0  0
   -6.8081   -1.9740  -20.9768 N   0  0  0  0  0  0  0  0  0  0  0  0
   -6.1736   -1.1560  -20.0049 C   0  0  0  0  0  0  0  0  0  0  0  0
   -6.5464   -1.2444  -18.6864 C   0  0  0  0  0  0  0  0  0  0  0  0
   -6.0164   -0.5008  -17.6832 N   0  0  0  0  0  0  0  0  0  0  0  0
   -5.0743    0.3607  -17.9981 C   0  0  0  0  0  0  0  0  0  0  0  0
   -4.5715    0.5390  -19.3210 C   0  0  0  0  0  0  0  0  0  0  0  0
   -3.5559    1.4886  -19.6307 C   0  0  0  0  0  0  0  0  0  0  0  0
   -3.1051    1.6255  -20.9166 C   0  0  0  0  0  0  0  0  0  0  0  0
   -3.6346    0.8204  -21.9482 C   0  0  0  0  0  0  0  0  0  0  0  0
   -4.6209   -0.0981  -21.6792 C   0  0  0  0  0  0  0  0  0  0  0  0
   -5.1211   -0.2521  -20.3567 C   0  0  0  0  0  0  0  0  0  0  0  0
   -7.8818   -1.5283  -21.7255 C   0  0  0  0  0  0  0  0  0  0  0  0
   -8.4212   -0.4580  -21.5801 O   0  0  0  0  0  0  0  0  0  0  0  0
   -8.2322   -2.6393  -22.7535 C   0  0  1  0  0  0  0  0  0  0  0  0
   -7.5821   -2.2907  -24.1209 C   0  0  0  0  0  0  0  0  0  0  0  0
   -8.1429   -1.0804  -24.6923 N   0  0  0  0  0  0  0  0  0  0  0  0
   -7.3234   -0.2602  -25.5623 C   0  0  0  0  0  0  0  0  0  0  0  0
   -7.0300    1.0852  -24.9750 C   0  0  0  0  0  0  0  0  0  0  0  0
   -6.9969    2.2238  -25.7118 N   0  0  0  0  0  0  0  0  0  0  0  0
   -6.6579    3.1439  -24.8309 C   0  0  0  0  0  0  0  0  0  0  0  0
   -6.4827    2.5621  -23.6349 N   0  0  0  0  0  0  0  0  0  0  0  0
   -6.7073    1.2395  -23.6971 N   0  0  0  0  0  0  0  0  0  0  0  0
   -9.4850   -0.8160  -24.6477 C   0  0  0  0  0  0  0  0  0  0  0  0
   -9.9804    0.1348  -25.2381 O   0  0  0  0  0  0  0  0  0  0  0  0
  -10.3229   -1.7798  -23.8503 C   0  0  0  0  0  0  0  0  0  0  0  0
  -11.7148   -1.7208  -23.9790 C   0  0  0  0  0  0  0  0  0  0  0  0
  -12.5271   -2.5745  -23.2584 C   0  0  0  0  0  0  0  0  0  0  0  0
  -11.9204   -3.4981  -22.4166 C   0  0  0  0  0  0  0  0  0  0  0  0
  -12.6926   -4.3316  -21.7007 F   0  0  0  0  0  0  0  0  0  0  0  0
  -10.5512   -3.5866  -22.2676 C   0  0  0  0  0  0  0  0  0  0  0  0
   -9.7278   -2.7101  -22.9811 C   0  0  0  0  0  0  0  0  0  0  0  0
   -6.8775   -5.9042  -22.4762 H   0  0  0  0  0  0  0  0  0  0  0  0
   -8.1075   -5.3425  -23.6173 H   0  0  0  0  0  0  0  0  0  0  0  0
   -6.4500   -4.7566  -23.7469 H   0  0  0  0  0  0  0  0  0  0  0  0
   -8.2282   -4.2553  -21.3182 H   0  0  0  0  0  0  0  0  0  0  0  0
   -6.0985   -3.8860  -20.4698 H   0  0  0  0  0  0  0  0  0  0  0  0
   -5.4690   -3.2749  -22.0148 H   0  0  0  0  0  0  0  0  0  0  0  0
   -7.3327   -1.9377  -18.3950 H   0  0  0  0  0  0  0  0  0  0  0  0
   -4.6531    0.9668  -17.1939 H   0  0  0  0  0  0  0  0  0  0  0  0
   -3.1499    2.1102  -18.8367 H   0  0  0  0  0  0  0  0  0  0  0  0
   -2.3296    2.3503  -21.1528 H   0  0  0  0  0  0  0  0  0  0  0  0
   -3.2732    0.9376  -22.9667 H   0  0  0  0  0  0  0  0  0  0  0  0
   -5.0373   -0.6984  -22.4834 H   0  0  0  0  0  0  0  0  0  0  0  0
   -7.7245   -3.1230  -24.8249 H   0  0  0  0  0  0  0  0  0  0  0  0
   -6.5056   -2.1322  -23.9831 H   0  0  0  0  0  0  0  0  0  0  0  0
   -7.8096   -0.1472  -26.5336 H   0  0  0  0  0  0  0  0  0  0  0  0
   -6.3821   -0.7909  -25.7436 H   0  0  0  0  0  0  0  0  0  0  0  0
   -6.5317    4.2041  -25.0182 H   0  0  0  0  0  0  0  0  0  0  0  0
   -6.2113    2.9952  -22.7703 H   0  0  0  0  0  0  0  0  0  0  0  0
  -12.1582   -0.9968  -24.6528 H   0  0  0  0  0  0  0  0  0  0  0  0
  -13.6111   -2.5352  -23.3284 H   0  0  0  0  0  0  0  0  0  0  0  0
  -10.1537   -4.3389  -21.5959 H   0  0  0  0  0  0  0  0  0  0  0  0
  1  2  1  0
  2  3  1  0
  3  4  1  0
  4  5  1  0
  5  6  2  0
  6  7  1  0
  7  8  2  0
  8  9  1  0
  9 10  2  0
 10 11  1  0
 11 12  2  0
 12 13  1  0
 13 14  2  0
  4 15  1  0
 15 16  2  0
 15 17  1  0
 17 18  1  6
 18 19  1  0
 19 20  1  0
 20 21  1  0
 21 22  1  0
 22 23  2  0
 23 24  1  0
 24 25  1  0
 19 26  1  0
 26 27  2  0
 26 28  1  0
 28 29  2  0
 29 30  1  0
 30 31  2  0
 31 32  1  0
 31 33  1  0
 33 34  2  0
 17  2  1  0
 25 21  2  0
 34 28  1  0
 14  5  1  0
 34 17  1  0
 14  9  1  0
  1 35  1  0
  1 36  1  0
  1 37  1  0
  2 38  1  1
  3 39  1  0
  3 40  1  0
  6 41  1  0
  8 42  1  0
 10 43  1  0
 11 44  1  0
 12 45  1  0
 13 46  1  0
 18 47  1  0
 18 48  1  0
 20 49  1  0
 20 50  1  0
 23 51  1  0
 24 52  1  0
 29 53  1  0
 30 54  1  0
 33 55  1  0
M  END
>  <RMSD>  (126) 
0.05508360313483905

$$$$

     RDKit          3D

 64 70  0  0  0  0  0  0  0  0999 V2000
    9.6802    1.6000   25.6549 O   0  0  0  0  0  0  0  0  0  0  0  0
    9.2055    0.8526   24.8121 C   0  0  0  0  0  0  0  0  0  0  0  0
   10.0418   -0.0872   24.0001 C   0  0  0  0  0  0  0  0  0  0  0  0
   11.4232   -0.0128   24.1757 C   0  0  0  0  0  0  0  0  0  0  0  0
   12.2726   -0.7292   23.3553 C   0  0  0  0  0  0  0  0  0  0  0  0
   11.7124   -1.5271   22.3573 C   0  0  0  0  0  0  0  0  0  0  0  0
   12.7673   -2.4281   21.3013 Cl  0  0  0  0  0  0  0  0  0  0  0  0
   10.3450   -1.6078   22.1679 C   0  0  0  0  0  0  0  0  0  0  0  0
    9.4740   -0.9043   23.0091 C   0  0  0  0  0  0  0  0  0  0  0  0
    7.9870   -0.9353   22.7371 C   0  0  1  0  0  0  0  0  0  0  0  0
    7.2639   -0.3667   23.9771 C   0  0  0  0  0  0  0  0  0  0  0  0
    7.8815    0.8509   24.4646 N   0  0  0  0  0  0  0  0  0  0  0  0
    7.1142    2.0746   24.6315 C   0  0  0  0  0  0  0  0  0  0  0  0
    7.5418    3.2401   23.7494 C   0  0  0  0  0  0  0  0  0  0  0  0
    6.9667    3.5306   22.5252 C   0  0  0  0  0  0  0  0  0  0  0  0
    7.3706    4.6957   21.8727 C   0  0  0  0  0  0  0  0  0  0  0  0
    8.2827    5.5282   22.3688 N   0  0  0  0  0  0  0  0  0  0  0  0
    8.8784    5.2299   23.5145 N   0  0  0  0  0  0  0  0  0  0  0  0
    8.5372    4.1279   24.1764 C   0  0  0  0  0  0  0  0  0  0  0  0
    7.6319   -0.1203   21.4679 C   0  0  0  0  0  0  0  0  0  0  0  0
    8.2147    0.8282   20.9956 O   0  0  0  0  0  0  0  0  0  0  0  0
    6.4967   -0.6854   20.9236 N   0  0  0  0  0  0  0  0  0  0  0  0
    5.8608   -0.0829   19.8147 C   0  0  0  0  0  0  0  0  0  0  0  0
    6.3095   -0.3419   18.5443 C   0  0  0  0  0  0  0  0  0  0  0  0
    5.7752    0.1946   17.4179 N   0  0  0  0  0  0  0  0  0  0  0  0
    4.7664    1.0197   17.5744 C   0  0  0  0  0  0  0  0  0  0  0  0
    4.2137    1.3833   18.8371 C   0  0  0  0  0  0  0  0  0  0  0  0
    3.1266    2.2875   18.9464 C   0  0  0  0  0  0  0  0  0  0  0  0
    2.6095    2.6141   20.1697 C   0  0  0  0  0  0  0  0  0  0  0  0
    3.1551    2.0541   21.3447 C   0  0  0  0  0  0  0  0  0  0  0  0
    4.2129    1.1792   21.2680 C   0  0  0  0  0  0  0  0  0  0  0  0
    4.7695    0.8199   20.0065 C   0  0  0  0  0  0  0  0  0  0  0  0
    6.1339   -1.9629   21.5015 C   0  0  0  0  0  0  0  0  0  0  0  0
    7.3933   -2.3123   22.3109 C   0  0  2  0  0  0  0  0  0  0  0  0
    7.1470   -3.3509   23.4108 C   0  0  0  0  0  0  0  0  0  0  0  0
    6.8336   -4.6643   22.8799 N   0  0  0  0  0  0  0  0  0  0  0  0
    5.5650   -5.0657   22.6264 C   0  0  0  0  0  0  0  0  0  0  0  0
    4.4981   -4.3802   22.9479 N   0  0  0  0  0  0  0  0  0  0  0  0
    3.3405   -5.0130   22.5868 N   0  0  0  0  0  0  0  0  0  0  0  0
    3.5438   -6.1446   22.0060 C   0  0  0  0  0  0  0  0  0  0  0  0
    5.2122   -6.5781   21.8327 S   0  0  0  0  0  0  0  0  0  0  0  0
   11.7942    0.6480   24.9537 H   0  0  0  0  0  0  0  0  0  0  0  0
   13.3507   -0.6663   23.4627 H   0  0  0  0  0  0  0  0  0  0  0  0
    9.9719   -2.2198   21.3547 H   0  0  0  0  0  0  0  0  0  0  0  0
    7.2770   -1.1301   24.7634 H   0  0  0  0  0  0  0  0  0  0  0  0
    6.2160   -0.1623   23.7393 H   0  0  0  0  0  0  0  0  0  0  0  0
    6.0771    1.8092   24.4175 H   0  0  0  0  0  0  0  0  0  0  0  0
    7.1813    2.3591   25.6851 H   0  0  0  0  0  0  0  0  0  0  0  0
    6.1921    2.9038   22.0885 H   0  0  0  0  0  0  0  0  0  0  0  0
    6.9625    4.9741   20.8996 H   0  0  0  0  0  0  0  0  0  0  0  0
    9.1119    3.9273   25.0795 H   0  0  0  0  0  0  0  0  0  0  0  0
    7.1527   -1.0145   18.3982 H   0  0  0  0  0  0  0  0  0  0  0  0
    4.3212    1.4421   16.6729 H   0  0  0  0  0  0  0  0  0  0  0  0
    2.7234    2.7113   18.0318 H   0  0  0  0  0  0  0  0  0  0  0  0
    1.7814    3.3129   20.2484 H   0  0  0  0  0  0  0  0  0  0  0  0
    2.7377    2.3179   22.3121 H   0  0  0  0  0  0  0  0  0  0  0  0
    4.6245    0.7558   22.1806 H   0  0  0  0  0  0  0  0  0  0  0  0
    5.2526   -1.8808   22.1546 H   0  0  0  0  0  0  0  0  0  0  0  0
    5.8917   -2.6990   20.7282 H   0  0  0  0  0  0  0  0  0  0  0  0
    8.1201   -2.7406   21.6158 H   0  0  0  0  0  0  0  0  0  0  0  0
    6.3020   -3.0467   24.0318 H   0  0  0  0  0  0  0  0  0  0  0  0
    8.0296   -3.4348   24.0577 H   0  0  0  0  0  0  0  0  0  0  0  0
    7.6024   -5.2378   22.5802 H   0  0  0  0  0  0  0  0  0  0  0  0
    2.7533   -6.7928   21.6478 H   0  0  0  0  0  0  0  0  0  0  0  0
  1  2  2  0
  2  3  1  0
  3  4  2  0
  4  5  1  0
  5  6  2  0
  6  7  1  0
  6  8  1  0
  8  9  2  0
  9 10  1  0
 10 11  1  1
 11 12  1  0
 12 13  1  0
 13 14  1  0
 14 15  2  0
 15 16  1  0
 16 17  2  0
 17 18  1  0
 18 19  2  0
 10 20  1  0
 20 21  2  0
 20 22  1  0
 22 23  1  0
 23 24  2  0
 24 25  1  0
 25 26  2  0
 26 27  1  0
 27 28  2  0
 28 29  1  0
 29 30  2  0
 30 31  1  0
 31 32  2  0
 22 33  1  0
 33 34  1  0
 34 35  1  0
 35 36  1  0
 36 37  1  0
 37 38  2  0
 38 39  1  0
 39 40  2  0
 40 41  1  0
 12  2  1  0
 19 14  1  0
 32 23  1  0
 41 37  1  0
  9  3  1  0
 34 10  1  0
 32 27  1  0
  4 42  1  0
  5 43  1  0
  8 44  1  0
 11 45  1  0
 11 46  1  0
 13 47  1  0
 13 48  1  0
 15 49  1  0
 16 50  1  0
 19 51  1  0
 24 52  1  0
 26 53  1  0
 28 54  1  0
 29 55  1  0
 30 56  1  0
 31 57  1  0
 33 58  1  0
 33 59  1  0
 34 60  1  6
 35 61  1  0
 35 62  1  0
 36 63  1  0
 40 64  1  0
M  END
>  <RMSD>  (127) 
0.18358974663916486

$$$$

     RDKit          3D

 55 60  0  0  0  0  0  0  0  0999 V2000
   -7.2318   -5.0323  -23.0321 C   0  0  0  0  0  0  0  0  0  0  0  0
   -7.5580   -3.8758  -22.0996 C   0  0  1  0  0  0  0  0  0  0  0  0
   -6.3510   -3.2972  -21.3533 C   0  0  0  0  0  0  0  0  0  0  0  0
   -6.8138   -1.9758  -20.9717 N   0  0  0  0  0  0  0  0  0  0  0  0
   -6.1776   -1.1527  -20.0068 C   0  0  0  0  0  0  0  0  0  0  0  0
   -6.5448   -1.2445  -18.6882 C   0  0  0  0  0  0  0  0  0  0  0  0
   -6.0136   -0.5035  -17.6839 N   0  0  0  0  0  0  0  0  0  0  0  0
   -5.0734    0.3597  -17.9994 C   0  0  0  0  0  0  0  0  0  0  0  0
   -4.5722    0.5390  -19.3220 C   0  0  0  0  0  0  0  0  0  0  0  0
   -3.5558    1.4892  -19.6294 C   0  0  0  0  0  0  0  0  0  0  0  0
   -3.1035    1.6267  -20.9146 C   0  0  0  0  0  0  0  0  0  0  0  0
   -3.6302    0.8189  -21.9497 C   0  0  0  0  0  0  0  0  0  0  0  0
   -4.6239   -0.0899  -21.6846 C   0  0  0  0  0  0  0  0  0  0  0  0
   -5.1248   -0.2482  -20.3625 C   0  0  0  0  0  0  0  0  0  0  0  0
   -7.8815   -1.5307  -21.7229 C   0  0  0  0  0  0  0  0  0  0  0  0
   -8.4107   -0.4502  -21.5833 O   0  0  0  0  0  0  0  0  0  0  0  0
   -8.2330   -2.6376  -22.7527 C   0  0  1  0  0  0  0  0  0  0  0  0
   -7.5897   -2.2868  -24.1211 C   0  0  0  0  0  0  0  0  0  0  0  0
   -8.1619   -1.0901  -24.7120 N   0  0  0  0  0  0  0  0  0  0  0  0
   -7.3164   -0.2857  -25.5729 C   0  0  0  0  0  0  0  0  0  0  0  0
   -6.7298    0.8990  -24.8813 C   0  0  0  0  0  0  0  0  0  0  0  0
   -7.3454    1.6824  -23.9720 C   0  0  0  0  0  0  0  0  0  0  0  0
   -6.4830    2.6868  -23.6419 O   0  0  0  0  0  0  0  0  0  0  0  0
   -5.3810    2.4375  -24.3738 C   0  0  0  0  0  0  0  0  0  0  0  0
   -5.4519    1.3852  -25.1210 N   0  0  0  0  0  0  0  0  0  0  0  0
   -9.5003   -0.8183  -24.6527 C   0  0  0  0  0  0  0  0  0  0  0  0
   -9.9944    0.1430  -25.2285 O   0  0  0  0  0  0  0  0  0  0  0  0
  -10.3293   -1.7836  -23.8449 C   0  0  0  0  0  0  0  0  0  0  0  0
  -11.7200   -1.7250  -23.9717 C   0  0  0  0  0  0  0  0  0  0  0  0
  -12.5327   -2.5796  -23.2528 C   0  0  0  0  0  0  0  0  0  0  0  0
  -11.9206   -3.5021  -22.4123 C   0  0  0  0  0  0  0  0  0  0  0  0
  -12.6908   -4.3361  -21.6952 F   0  0  0  0  0  0  0  0  0  0  0  0
  -10.5510   -3.5891  -22.2614 C   0  0  0  0  0  0  0  0  0  0  0  0
   -9.7290   -2.7120  -22.9760 C   0  0  0  0  0  0  0  0  0  0  0  0
   -6.4527   -4.7567  -23.7465 H   0  0  0  0  0  0  0  0  0  0  0  0
   -6.8751   -5.9046  -22.4781 H   0  0  0  0  0  0  0  0  0  0  0  0
   -8.1041   -5.3427  -23.6157 H   0  0  0  0  0  0  0  0  0  0  0  0
   -8.2313   -4.2493  -21.3239 H   0  0  0  0  0  0  0  0  0  0  0  0
   -6.0905   -3.8829  -20.4697 H   0  0  0  0  0  0  0  0  0  0  0  0
   -5.4662   -3.2760  -22.0127 H   0  0  0  0  0  0  0  0  0  0  0  0
   -7.3283   -1.9388  -18.3922 H   0  0  0  0  0  0  0  0  0  0  0  0
   -4.6528    0.9649  -17.1929 H   0  0  0  0  0  0  0  0  0  0  0  0
   -3.1526    2.1110  -18.8324 H   0  0  0  0  0  0  0  0  0  0  0  0
   -2.3319    2.3557  -21.1516 H   0  0  0  0  0  0  0  0  0  0  0  0
   -3.2651    0.9285  -22.9681 H   0  0  0  0  0  0  0  0  0  0  0  0
   -5.0394   -0.7024  -22.4804 H   0  0  0  0  0  0  0  0  0  0  0  0
   -7.7249   -3.1233  -24.8204 H   0  0  0  0  0  0  0  0  0  0  0  0
   -6.5151   -2.1206  -23.9916 H   0  0  0  0  0  0  0  0  0  0  0  0
   -7.9167    0.0468  -26.4258 H   0  0  0  0  0  0  0  0  0  0  0  0
   -6.5061   -0.9094  -25.9586 H   0  0  0  0  0  0  0  0  0  0  0  0
   -8.3220    1.6758  -23.5127 H   0  0  0  0  0  0  0  0  0  0  0  0
   -4.5417    3.1160  -24.2632 H   0  0  0  0  0  0  0  0  0  0  0  0
  -12.1555   -0.9978  -24.6465 H   0  0  0  0  0  0  0  0  0  0  0  0
  -13.6178   -2.5417  -23.3196 H   0  0  0  0  0  0  0  0  0  0  0  0
  -10.1480   -4.3419  -21.5918 H   0  0  0  0  0  0  0  0  0  0  0  0
  1  2  1  0
  2  3  1  0
  3  4  1  0
  4  5  1  0
  5  6  2  0
  6  7  1  0
  7  8  2  0
  8  9  1  0
  9 10  2  0
 10 11  1  0
 11 12  2  0
 12 13  1  0
 13 14  2  0
  4 15  1  0
 15 16  2  0
 15 17  1  0
 17 18  1  6
 18 19  1  0
 19 20  1  0
 20 21  1  0
 21 22  2  0
 22 23  1  0
 23 24  1  0
 24 25  2  0
 19 26  1  0
 26 27  2  0
 26 28  1  0
 28 29  2  0
 29 30  1  0
 30 31  2  0
 31 32  1  0
 31 33  1  0
 33 34  2  0
 17  2  1  0
 25 21  1  0
 34 28  1  0
 14  5  1  0
 34 17  1  0
 14  9  1  0
  1 35  1  0
  1 36  1  0
  1 37  1  0
  2 38  1  1
  3 39  1  0
  3 40  1  0
  6 41  1  0
  8 42  1  0
 10 43  1  0
 11 44  1  0
 12 45  1  0
 13 46  1  0
 18 47  1  0
 18 48  1  0
 20 49  1  0
 20 50  1  0
 22 51  1  0
 24 52  1  0
 29 53  1  0
 30 54  1  0
 33 55  1  0
M  END
>  <RMSD>  (128) 
0.055379102243114785

$$$$

     RDKit          3D

 70 76  0  0  0  0  0  0  0  0999 V2000
    7.1828   -3.2210   23.5411 C   0  0  0  0  0  0  0  0  0  0  0  0
    7.3937   -2.2400   22.3968 C   0  0  1  0  0  0  0  0  0  0  0  0
    6.1308   -1.9184   21.5827 C   0  0  0  0  0  0  0  0  0  0  0  0
    6.5154   -0.6806   20.9197 N   0  0  0  0  0  0  0  0  0  0  0  0
    5.8609   -0.0859   19.8158 C   0  0  0  0  0  0  0  0  0  0  0  0
    6.3181   -0.3350   18.5466 C   0  0  0  0  0  0  0  0  0  0  0  0
    5.7726    0.1899   17.4215 N   0  0  0  0  0  0  0  0  0  0  0  0
    4.7555    1.0049   17.5741 C   0  0  0  0  0  0  0  0  0  0  0  0
    4.1941    1.3664   18.8344 C   0  0  0  0  0  0  0  0  0  0  0  0
    3.1205    2.2910   18.9443 C   0  0  0  0  0  0  0  0  0  0  0  0
    2.6147    2.6249   20.1720 C   0  0  0  0  0  0  0  0  0  0  0  0
    3.1548    2.0548   21.3455 C   0  0  0  0  0  0  0  0  0  0  0  0
    4.2011    1.1635   21.2664 C   0  0  0  0  0  0  0  0  0  0  0  0
    4.7530    0.7994   20.0033 C   0  0  0  0  0  0  0  0  0  0  0  0
    7.6723   -0.1211   21.4192 C   0  0  0  0  0  0  0  0  0  0  0  0
    8.2950    0.7715   20.8768 O   0  0  0  0  0  0  0  0  0  0  0  0
    7.9913   -0.8386   22.7495 C   0  0  1  0  0  0  0  0  0  0  0  0
    7.2268   -0.1828   23.9433 C   0  0  0  0  0  0  0  0  0  0  0  0
    7.8407    1.0613   24.3826 N   0  0  0  0  0  0  0  0  0  0  0  0
    7.0654    2.2872   24.4731 C   0  0  0  0  0  0  0  0  0  0  0  0
    7.0067    3.0193   23.1342 C   0  0  0  0  0  0  0  0  0  0  0  0
    6.2107    4.2625   23.2248 N   0  0  2  0  0  0  0  0  0  0  0  0
    5.9602    4.9342   21.9085 C   0  0  0  0  0  0  0  0  0  0  0  0
    5.5329    6.3549   22.2631 C   0  0  0  0  0  0  0  0  0  0  0  0
    6.1897    6.6628   23.6179 C   0  0  0  0  0  0  0  0  0  0  0  0
    7.1046    7.8947   23.6772 C   0  0  0  0  0  0  0  0  0  0  0  0
    6.4492    8.4097   24.8391 O   0  0  0  0  0  0  0  0  0  0  0  0
    5.3890    7.4628   24.6677 C   0  0  0  0  0  0  0  0  0  0  0  0
    6.8045    5.3442   24.1001 C   0  0  0  0  0  0  0  0  0  0  0  0
    9.1783    1.1122   24.6765 C   0  0  0  0  0  0  0  0  0  0  0  0
    9.6833    1.9744   25.3865 O   0  0  0  0  0  0  0  0  0  0  0  0
   10.0171    0.0704   23.9982 C   0  0  0  0  0  0  0  0  0  0  0  0
   11.3890    0.0908   24.2518 C   0  0  0  0  0  0  0  0  0  0  0  0
   12.2555   -0.6777   23.5002 C   0  0  0  0  0  0  0  0  0  0  0  0
   11.7200   -1.4852   22.4948 C   0  0  0  0  0  0  0  0  0  0  0  0
   12.7990   -2.3967   21.4729 Cl  0  0  0  0  0  0  0  0  0  0  0  0
   10.3572   -1.5558   22.2625 C   0  0  0  0  0  0  0  0  0  0  0  0
    9.4735   -0.7906   23.0350 C   0  0  0  0  0  0  0  0  0  0  0  0
    6.8877   -4.2004   23.1446 H   0  0  0  0  0  0  0  0  0  0  0  0
    8.1085   -3.3455   24.1138 H   0  0  0  0  0  0  0  0  0  0  0  0
    6.3963   -2.8786   24.2272 H   0  0  0  0  0  0  0  0  0  0  0  0
    8.0815   -2.6949   21.6742 H   0  0  0  0  0  0  0  0  0  0  0  0
    5.2465   -1.7984   22.2296 H   0  0  0  0  0  0  0  0  0  0  0  0
    5.8912   -2.7077   20.8605 H   0  0  0  0  0  0  0  0  0  0  0  0
    7.1712   -0.9943   18.4020 H   0  0  0  0  0  0  0  0  0  0  0  0
    4.3340    1.4413   16.6675 H   0  0  0  0  0  0  0  0  0  0  0  0
    2.7182    2.7240   18.0323 H   0  0  0  0  0  0  0  0  0  0  0  0
    1.7898    3.3284   20.2502 H   0  0  0  0  0  0  0  0  0  0  0  0
    2.7484    2.3286   22.3159 H   0  0  0  0  0  0  0  0  0  0  0  0
    4.6146    0.7465   22.1797 H   0  0  0  0  0  0  0  0  0  0  0  0
    7.2133   -0.9005   24.7808 H   0  0  0  0  0  0  0  0  0  0  0  0
    6.1881    0.0361   23.6662 H   0  0  0  0  0  0  0  0  0  0  0  0
    7.5357    2.9058   25.2380 H   0  0  0  0  0  0  0  0  0  0  0  0
    6.0411    2.0739   24.8075 H   0  0  0  0  0  0  0  0  0  0  0  0
    8.0186    3.2617   22.7842 H   0  0  0  0  0  0  0  0  0  0  0  0
    6.5563    2.3688   22.3783 H   0  0  0  0  0  0  0  0  0  0  0  0
    5.2777    3.9927   23.6073 H   0  0  0  0  0  0  0  0  0  0  0  0
    5.2112    4.3763   21.3434 H   0  0  0  0  0  0  0  0  0  0  0  0
    6.8920    4.9311   21.3355 H   0  0  0  0  0  0  0  0  0  0  0  0
    5.8586    7.0598   21.4886 H   0  0  0  0  0  0  0  0  0  0  0  0
    4.4393    6.4246   22.3325 H   0  0  0  0  0  0  0  0  0  0  0  0
    6.9345    8.5578   22.8215 H   0  0  0  0  0  0  0  0  0  0  0  0
    8.1791    7.7399   23.8228 H   0  0  0  0  0  0  0  0  0  0  0  0
    5.1474    6.9745   25.6172 H   0  0  0  0  0  0  0  0  0  0  0  0
    4.4858    7.9248   24.2425 H   0  0  0  0  0  0  0  0  0  0  0  0
    6.5832    5.1178   25.1468 H   0  0  0  0  0  0  0  0  0  0  0  0
    7.8939    5.3255   23.9601 H   0  0  0  0  0  0  0  0  0  0  0  0
   11.7486    0.7473   25.0365 H   0  0  0  0  0  0  0  0  0  0  0  0
   13.3281   -0.6408   23.6722 H   0  0  0  0  0  0  0  0  0  0  0  0
    9.9972   -2.1951   21.4625 H   0  0  0  0  0  0  0  0  0  0  0  0
  1  2  1  0
  2  3  1  0
  3  4  1  0
  4  5  1  0
  5  6  2  0
  6  7  1  0
  7  8  2  0
  8  9  1  0
  9 10  2  0
 10 11  1  0
 11 12  2  0
 12 13  1  0
 13 14  2  0
  4 15  1  0
 15 16  2  0
 15 17  1  0
 17 18  1  1
 18 19  1  0
 19 20  1  0
 20 21  1  0
 21 22  1  0
 22 23  1  0
 23 24  1  0
 24 25  1  0
 25 26  1  0
 26 27  1  0
 27 28  1  0
 25 29  1  0
 19 30  1  0
 30 31  2  0
 30 32  1  0
 32 33  2  0
 33 34  1  0
 34 35  2  0
 35 36  1  0
 35 37  1  0
 37 38  2  0
 17  2  1  0
 29 22  1  0
 38 32  1  0
 14  5  1  0
 38 17  1  0
 14  9  1  0
 28 25  1  0
  1 39  1  0
  1 40  1  0
  1 41  1  0
  2 42  1  6
  3 43  1  0
  3 44  1  0
  6 45  1  0
  8 46  1  0
 10 47  1  0
 11 48  1  0
 12 49  1  0
 13 50  1  0
 18 51  1  0
 18 52  1  0
 20 53  1  0
 20 54  1  0
 21 55  1  0
 21 56  1  0
 22 57  1  1
 23 58  1  0
 23 59  1  0
 24 60  1  0
 24 61  1  0
 26 62  1  0
 26 63  1  0
 28 64  1  0
 28 65  1  0
 29 66  1  0
 29 67  1  0
 33 68  1  0
 34 69  1  0
 37 70  1  0
M  CHG  1  22   1
M  END
>  <RMSD>  (129) 
0.1817899992562468

$$$$

     RDKit          3D

 24 27  0  0  0  0  0  0  0  0999 V2000
   -9.8236    1.4199  -24.4304 C   0  0  0  0  0  0  0  0  0  0  0  0
  -10.9580    0.5041  -23.9938 C   0  0  0  0  0  0  0  0  0  0  0  0
  -10.7774   -0.1444  -22.6088 C   0  0  1  0  0  0  0  0  0  0  0  0
  -11.9959   -0.9587  -22.2769 C   0  0  0  0  0  0  0  0  0  0  0  0
  -13.3238   -0.4426  -22.1250 C   0  0  0  0  0  0  0  0  0  0  0  0
  -14.2162   -1.4148  -21.8014 C   0  0  0  0  0  0  0  0  0  0  0  0
  -13.4767   -2.9683  -21.7503 S   0  0  0  0  0  0  0  0  0  0  0  0
  -11.9267   -2.3064  -22.1083 C   0  0  0  0  0  0  0  0  0  0  0  0
  -10.6905   -3.1503  -22.2546 C   0  0  0  0  0  0  0  0  0  0  0  0
   -9.6556   -2.3130  -23.0073 C   0  0  0  0  0  0  0  0  0  0  0  0
   -9.5722   -0.9614  -22.4595 N   0  0  0  0  0  0  0  0  0  0  0  0
   -8.5264   -0.4264  -21.7485 C   0  0  0  0  0  0  0  0  0  0  0  0
   -8.4695    0.7609  -21.4641 O   0  0  0  0  0  0  0  0  0  0  0  0
   -7.4610   -1.4118  -21.2629 C   0  0  0  0  0  0  0  0  0  0  0  0
   -6.5970   -0.8339  -20.1813 C   0  0  0  0  0  0  0  0  0  0  0  0
   -6.9084   -1.0538  -18.8663 C   0  0  0  0  0  0  0  0  0  0  0  0
   -6.2369   -0.5498  -17.7955 N   0  0  0  0  0  0  0  0  0  0  0  0
   -5.1962    0.2060  -18.0639 C   0  0  0  0  0  0  0  0  0  0  0  0
   -4.7572    0.5221  -19.3776 C   0  0  0  0  0  0  0  0  0  0  0  0
   -3.6274    1.3491  -19.6119 C   0  0  0  0  0  0  0  0  0  0  0  0
   -3.2346    1.6432  -20.8897 C   0  0  0  0  0  0  0  0  0  0  0  0
   -3.9535    1.1254  -21.9911 C   0  0  0  0  0  0  0  0  0  0  0  0
   -5.0545    0.3274  -21.7916 C   0  0  0  0  0  0  0  0  0  0  0  0
   -5.4791   -0.0011  -20.4751 C   0  0  0  0  0  0  0  0  0  0  0  0
  1  2  1  0
  3  2  1  6
  3  4  1  0
  4  5  1  0
  5  6  2  0
  6  7  1  0
  7  8  1  0
  8  9  1  0
  9 10  1  0
 10 11  1  0
 11 12  1  0
 12 13  2  0
 12 14  1  0
 14 15  1  0
 15 16  2  0
 16 17  1  0
 17 18  2  0
 18 19  1  0
 19 20  2  0
 20 21  1  0
 21 22  2  0
 22 23  1  0
 23 24  2  0
 11  3  1  0
 24 15  1  0
  8  4  2  0
 24 19  1  0
M  END
>  <cnnaffinities>  (130) 
[5.73898]

>  <score>  (130) 
5.73898

>  <index>  (130) 
66

>  <Smiles>  (130) 
C(C([C@]1(c2c(c(sc2C(C(N1C(=O)C(c1c(nc(c2c(c(c(c(c12)[H])[H])[H])[H])[H])[H])([H])[H])([H])[H])([H])[H])[H])[H])[H])([H])[H])([H])([H])[H]

>  <h>  (130) 
<NA>

>  <Training>  (130) 
True

>  <Success>  (130) 
True

>  <enamine_searched>  (130) 
False

>  <enamine_id>  (130) 
nan

$$$$

     RDKit          3D

 56 61  0  0  0  0  0  0  0  0999 V2000
    5.9449    4.6284   21.2496 C   0  0  0  0  0  0  0  0  0  0  0  0
    5.7733    4.0980   22.5846 N   0  0  0  0  0  0  0  0  0  0  0  0
    4.7224    4.3080   23.4096 C   0  0  0  0  0  0  0  0  0  0  0  0
    4.9109    3.5007   24.5075 C   0  0  0  0  0  0  0  0  0  0  0  0
    6.1221    2.8222   24.2424 C   0  0  0  0  0  0  0  0  0  0  0  0
    6.7752    1.8223   25.1586 C   0  0  0  0  0  0  0  0  0  0  0  0
    7.6954    0.9188   24.5090 N   0  0  0  0  0  0  0  0  0  0  0  0
    7.2139   -0.3897   24.1100 C   0  0  0  0  0  0  0  0  0  0  0  0
    7.9316   -0.9065   22.8343 C   0  0  1  0  0  0  0  0  0  0  0  0
    7.3543   -2.2682   22.4012 C   0  0  0  0  0  0  0  0  0  0  0  0
    6.1327   -1.9297   21.5375 C   0  0  0  0  0  0  0  0  0  0  0  0
    6.5297   -0.6676   20.9389 N   0  0  0  0  0  0  0  0  0  0  0  0
    5.8819   -0.0606   19.8300 C   0  0  0  0  0  0  0  0  0  0  0  0
    6.3053   -0.3467   18.5570 C   0  0  0  0  0  0  0  0  0  0  0  0
    5.7640    0.1730   17.4280 N   0  0  0  0  0  0  0  0  0  0  0  0
    4.7617    1.0118   17.5697 C   0  0  0  0  0  0  0  0  0  0  0  0
    4.2043    1.3852   18.8273 C   0  0  0  0  0  0  0  0  0  0  0  0
    3.1188    2.3001   18.9424 C   0  0  0  0  0  0  0  0  0  0  0  0
    2.6085    2.6226   20.1717 C   0  0  0  0  0  0  0  0  0  0  0  0
    3.1520    2.0463   21.3426 C   0  0  0  0  0  0  0  0  0  0  0  0
    4.2123    1.1767   21.2602 C   0  0  0  0  0  0  0  0  0  0  0  0
    4.7703    0.8261   20.0008 C   0  0  0  0  0  0  0  0  0  0  0  0
    7.5506   -0.0303   21.6134 C   0  0  0  0  0  0  0  0  0  0  0  0
    8.0345    1.0228   21.2736 O   0  0  0  0  0  0  0  0  0  0  0  0
    9.4182   -0.8423   23.1065 C   0  0  0  0  0  0  0  0  0  0  0  0
   10.3182   -1.7662   22.5678 C   0  0  0  0  0  0  0  0  0  0  0  0
   11.6805   -1.5750   22.7285 C   0  0  0  0  0  0  0  0  0  0  0  0
   12.7759   -2.7162   22.0020 Cl  0  0  0  0  0  0  0  0  0  0  0  0
   12.1909   -0.4793   23.4289 C   0  0  0  0  0  0  0  0  0  0  0  0
   11.3010    0.4292   23.9732 C   0  0  0  0  0  0  0  0  0  0  0  0
    9.9253    0.2541   23.8218 C   0  0  0  0  0  0  0  0  0  0  0  0
    9.0137    1.2753   24.4378 C   0  0  0  0  0  0  0  0  0  0  0  0
    9.4182    2.3494   24.8613 O   0  0  0  0  0  0  0  0  0  0  0  0
    6.6235    3.1824   23.0671 N   0  0  0  0  0  0  0  0  0  0  0  0
    7.0099    4.7001   21.0248 H   0  0  0  0  0  0  0  0  0  0  0  0
    5.4298    4.0068   20.5049 H   0  0  0  0  0  0  0  0  0  0  0  0
    5.5169    5.6299   21.2212 H   0  0  0  0  0  0  0  0  0  0  0  0
    3.9220    4.9843   23.1295 H   0  0  0  0  0  0  0  0  0  0  0  0
    4.2731    3.3938   25.3755 H   0  0  0  0  0  0  0  0  0  0  0  0
    5.9969    1.2265   25.6473 H   0  0  0  0  0  0  0  0  0  0  0  0
    7.3148    2.3330   25.9605 H   0  0  0  0  0  0  0  0  0  0  0  0
    7.3663   -1.1050   24.9329 H   0  0  0  0  0  0  0  0  0  0  0  0
    6.1373   -0.3139   23.9196 H   0  0  0  0  0  0  0  0  0  0  0  0
    7.1273   -2.9181   23.2481 H   0  0  0  0  0  0  0  0  0  0  0  0
    8.0712   -2.8078   21.7842 H   0  0  0  0  0  0  0  0  0  0  0  0
    5.9463   -2.6677   20.7533 H   0  0  0  0  0  0  0  0  0  0  0  0
    5.2196   -1.8568   22.1525 H   0  0  0  0  0  0  0  0  0  0  0  0
    7.1383   -1.0285   18.4045 H   0  0  0  0  0  0  0  0  0  0  0  0
    4.3348    1.4375   16.6600 H   0  0  0  0  0  0  0  0  0  0  0  0
    2.7093    2.7427   18.0361 H   0  0  0  0  0  0  0  0  0  0  0  0
    1.7811    3.3256   20.2523 H   0  0  0  0  0  0  0  0  0  0  0  0
    2.7296    2.2948   22.3130 H   0  0  0  0  0  0  0  0  0  0  0  0
    4.6348    0.7288   22.1566 H   0  0  0  0  0  0  0  0  0  0  0  0
    9.9649   -2.6387   22.0266 H   0  0  0  0  0  0  0  0  0  0  0  0
   13.2659   -0.3448   23.5196 H   0  0  0  0  0  0  0  0  0  0  0  0
   11.6561    1.2947   24.5232 H   0  0  0  0  0  0  0  0  0  0  0  0
  1  2  1  0
  2  3  1  0
  3  4  2  0
  4  5  1  0
  5  6  1  0
  6  7  1  0
  7  8  1  0
  9  8  1  1
  9 10  1  0
 10 11  1  0
 11 12  1  0
 12 13  1  0
 13 14  2  0
 14 15  1  0
 15 16  2  0
 16 17  1  0
 17 18  2  0
 18 19  1  0
 19 20  2  0
 20 21  1  0
 21 22  2  0
 12 23  1  0
 23 24  2  0
  9 25  1  0
 25 26  2  0
 26 27  1  0
 27 28  1  0
 27 29  2  0
 29 30  1  0
 30 31  2  0
 31 32  1  0
 32 33  2  0
  5 34  2  0
 34  2  1  0
 32  7  1  0
 23  9  1  0
 31 25  1  0
 22 13  1  0
 22 17  1  0
  1 35  1  0
  1 36  1  0
  1 37  1  0
  3 38  1  0
  4 39  1  0
  6 40  1  0
  6 41  1  0
  8 42  1  0
  8 43  1  0
 10 44  1  0
 10 45  1  0
 11 46  1  0
 11 47  1  0
 14 48  1  0
 16 49  1  0
 18 50  1  0
 19 51  1  0
 20 52  1  0
 21 53  1  0
 26 54  1  0
 29 55  1  0
 30 56  1  0
M  END
>  <RMSD>  (131) 
0.17367346688066929

$$$$

     RDKit          3D

 66 71  0  0  0  0  0  0  0  0999 V2000
   -7.3278   -5.0271  -23.0341 C   0  0  0  0  0  0  0  0  0  0  0  0
   -7.5935   -3.8778  -22.0714 C   0  0  1  0  0  0  0  0  0  0  0  0
   -6.3404   -3.3118  -21.3837 C   0  0  0  0  0  0  0  0  0  0  0  0
   -6.8033   -2.0021  -20.9461 N   0  0  0  0  0  0  0  0  0  0  0  0
   -6.1568   -1.1778  -19.9904 C   0  0  0  0  0  0  0  0  0  0  0  0
   -6.5544   -1.2332  -18.6791 C   0  0  0  0  0  0  0  0  0  0  0  0
   -6.0204   -0.4844  -17.6800 N   0  0  0  0  0  0  0  0  0  0  0  0
   -5.0688    0.3563  -18.0076 C   0  0  0  0  0  0  0  0  0  0  0  0
   -4.5634    0.5226  -19.3298 C   0  0  0  0  0  0  0  0  0  0  0  0
   -3.5541    1.4753  -19.6332 C   0  0  0  0  0  0  0  0  0  0  0  0
   -3.1010    1.6223  -20.9135 C   0  0  0  0  0  0  0  0  0  0  0  0
   -3.6357    0.8312  -21.9531 C   0  0  0  0  0  0  0  0  0  0  0  0
   -4.6221   -0.0904  -21.6903 C   0  0  0  0  0  0  0  0  0  0  0  0
   -5.1141   -0.2688  -20.3663 C   0  0  0  0  0  0  0  0  0  0  0  0
   -7.9934   -1.6192  -21.5281 C   0  0  0  0  0  0  0  0  0  0  0  0
   -8.6565   -0.6573  -21.1858 O   0  0  0  0  0  0  0  0  0  0  0  0
   -8.3000   -2.6172  -22.6665 C   0  0  1  0  0  0  0  0  0  0  0  0
   -7.6006   -2.1872  -23.9898 C   0  0  0  0  0  0  0  0  0  0  0  0
   -8.2977   -1.1239  -24.6916 N   0  0  0  0  0  0  0  0  0  0  0  0
   -7.5826    0.0902  -25.0707 C   0  0  0  0  0  0  0  0  0  0  0  0
   -7.5068    1.1086  -23.9258 C   0  0  0  0  0  0  0  0  0  0  0  0
   -8.5767    2.1536  -24.0095 N   0  0  0  0  0  0  0  0  0  0  0  0
   -8.2393    3.3956  -23.2317 C   0  0  0  0  0  0  0  0  0  0  0  0
   -9.2890    4.4738  -23.4660 C   0  0  0  0  0  0  0  0  0  0  0  0
  -10.5951    4.0583  -23.1238 O   0  0  0  0  0  0  0  0  0  0  0  0
  -10.9613    2.8241  -23.7038 C   0  0  0  0  0  0  0  0  0  0  0  0
   -9.9372    1.7067  -23.5223 C   0  0  0  0  0  0  0  0  0  0  0  0
   -9.6391   -1.2176  -24.9329 C   0  0  0  0  0  0  0  0  0  0  0  0
  -10.2204   -0.5609  -25.7881 O   0  0  0  0  0  0  0  0  0  0  0  0
  -10.4114   -2.1049  -23.9917 C   0  0  0  0  0  0  0  0  0  0  0  0
  -11.7938   -2.1898  -24.1708 C   0  0  0  0  0  0  0  0  0  0  0  0
  -12.5885   -2.8469  -23.2496 C   0  0  0  0  0  0  0  0  0  0  0  0
  -11.9715   -3.4297  -22.1401 C   0  0  0  0  0  0  0  0  0  0  0  0
  -12.9567   -4.2123  -20.9321 Cl  0  0  0  0  0  0  0  0  0  0  0  0
  -10.6014   -3.3730  -21.9569 C   0  0  0  0  0  0  0  0  0  0  0  0
   -9.7877   -2.7278  -22.9007 C   0  0  0  0  0  0  0  0  0  0  0  0
   -6.9491   -5.9028  -22.4953 H   0  0  0  0  0  0  0  0  0  0  0  0
   -8.2485   -5.3128  -23.5557 H   0  0  0  0  0  0  0  0  0  0  0  0
   -6.5807   -4.7542  -23.7903 H   0  0  0  0  0  0  0  0  0  0  0  0
   -8.2222   -4.2526  -21.2540 H   0  0  0  0  0  0  0  0  0  0  0  0
   -5.4921   -3.2435  -22.0846 H   0  0  0  0  0  0  0  0  0  0  0  0
   -6.0149   -3.9276  -20.5381 H   0  0  0  0  0  0  0  0  0  0  0  0
   -7.3531   -1.9134  -18.3910 H   0  0  0  0  0  0  0  0  0  0  0  0
   -4.6541    0.9723  -17.2072 H   0  0  0  0  0  0  0  0  0  0  0  0
   -3.1642    2.0909  -18.8264 H   0  0  0  0  0  0  0  0  0  0  0  0
   -2.3322    2.3557  -21.1441 H   0  0  0  0  0  0  0  0  0  0  0  0
   -3.2720    0.9613  -22.9671 H   0  0  0  0  0  0  0  0  0  0  0  0
   -5.0341   -0.6798  -22.5052 H   0  0  0  0  0  0  0  0  0  0  0  0
   -7.5332   -3.0647  -24.6478 H   0  0  0  0  0  0  0  0  0  0  0  0
   -6.5833   -1.8391  -23.7863 H   0  0  0  0  0  0  0  0  0  0  0  0
   -6.5828   -0.1855  -25.4220 H   0  0  0  0  0  0  0  0  0  0  0  0
   -8.1057    0.5319  -25.9177 H   0  0  0  0  0  0  0  0  0  0  0  0
   -7.5897    0.5912  -22.9665 H   0  0  0  0  0  0  0  0  0  0  0  0
   -6.5511    1.6392  -23.9285 H   0  0  0  0  0  0  0  0  0  0  0  0
   -8.6705    2.4205  -25.0131 H   0  0  0  0  0  0  0  0  0  0  0  0
   -7.2556    3.7640  -23.5269 H   0  0  0  0  0  0  0  0  0  0  0  0
   -8.1873    3.1324  -22.1697 H   0  0  0  0  0  0  0  0  0  0  0  0
   -9.2359    4.7915  -24.5247 H   0  0  0  0  0  0  0  0  0  0  0  0
   -9.0664    5.3246  -22.8164 H   0  0  0  0  0  0  0  0  0  0  0  0
  -11.1704    2.9350  -24.7838 H   0  0  0  0  0  0  0  0  0  0  0  0
  -11.8945    2.5223  -23.2214 H   0  0  0  0  0  0  0  0  0  0  0  0
  -10.2767    0.8577  -24.1018 H   0  0  0  0  0  0  0  0  0  0  0  0
   -9.8540    1.3767  -22.4815 H   0  0  0  0  0  0  0  0  0  0  0  0
  -12.2316   -1.7085  -25.0401 H   0  0  0  0  0  0  0  0  0  0  0  0
  -13.6673   -2.8995  -23.3740 H   0  0  0  0  0  0  0  0  0  0  0  0
  -10.1750   -3.8281  -21.0675 H   0  0  0  0  0  0  0  0  0  0  0  0
  1  2  1  0
  2  3  1  0
  3  4  1  0
  4  5  1  0
  5  6  2  0
  6  7  1  0
  7  8  2  0
  8  9  1  0
  9 10  2  0
 10 11  1  0
 11 12  2  0
 12 13  1  0
 13 14  2  0
  4 15  1  0
 15 16  2  0
 15 17  1  0
 17 18  1  6
 18 19  1  0
 19 20  1  0
 20 21  1  0
 21 22  1  0
 22 23  1  0
 23 24  1  0
 24 25  1  0
 25 26  1  0
 26 27  1  0
 19 28  1  0
 28 29  2  0
 28 30  1  0
 30 31  2  0
 31 32  1  0
 32 33  2  0
 33 34  1  0
 33 35  1  0
 35 36  2  0
 17  2  1  0
 27 22  1  0
 36 30  1  0
 14  5  1  0
 36 17  1  0
 14  9  1  0
  1 37  1  0
  1 38  1  0
  1 39  1  0
  2 40  1  1
  3 41  1  0
  3 42  1  0
  6 43  1  0
  8 44  1  0
 10 45  1  0
 11 46  1  0
 12 47  1  0
 13 48  1  0
 18 49  1  0
 18 50  1  0
 20 51  1  0
 20 52  1  0
 21 53  1  0
 21 54  1  0
 22 55  1  0
 23 56  1  0
 23 57  1  0
 24 58  1  0
 24 59  1  0
 26 60  1  0
 26 61  1  0
 27 62  1  0
 27 63  1  0
 31 64  1  0
 32 65  1  0
 35 66  1  0
M  CHG  1  22   1
M  END
>  <RMSD>  (132) 
0.06762254224179051

$$$$

     RDKit          3D

 34 39  0  0  0  0  0  0  0  0999 V2000
   13.3041   -2.9847   23.8066 C   0  0  0  0  0  0  0  0  0  0  0  0
   13.0501   -1.6038   24.1416 N   0  0  0  0  0  0  0  0  0  0  0  0
   12.4665   -0.8364   23.1855 C   0  0  0  0  0  0  0  0  0  0  0  0
   12.2964   -1.2168   22.0387 O   0  0  0  0  0  0  0  0  0  0  0  0
   11.9942    0.5298   23.6518 C   0  0  0  0  0  0  0  0  0  0  0  0
   10.5766    0.4759   23.9223 N   0  0  0  0  0  0  0  0  0  0  0  0
   10.1055    0.0261   25.1442 C   0  0  0  0  0  0  0  0  0  0  0  0
   10.8002   -0.5467   25.9689 O   0  0  0  0  0  0  0  0  0  0  0  0
    8.6803    0.4828   25.2282 C   0  0  0  0  0  0  0  0  0  0  0  0
    7.8116    0.4367   26.2922 C   0  0  0  0  0  0  0  0  0  0  0  0
    6.5784    1.1256   26.1914 C   0  0  0  0  0  0  0  0  0  0  0  0
    6.3056    1.9268   25.1130 C   0  0  0  0  0  0  0  0  0  0  0  0
    4.7986    2.7783   25.0151 Cl  0  0  0  0  0  0  0  0  0  0  0  0
    7.3113    2.2432   24.0713 C   0  0  0  0  0  0  0  0  0  0  0  0
    8.3233    1.1179   23.9646 C   0  0  1  0  0  0  0  0  0  0  0  0
    9.5744    1.1220   23.1381 C   0  0  2  0  0  0  0  0  0  0  0  0
    8.4167    0.3058   22.6365 C   0  0  2  0  0  0  0  0  0  0  0  0
    7.6873    0.7745   21.3901 C   0  0  0  0  0  0  0  0  0  0  0  0
    7.7325    1.8528   20.8367 O   0  0  0  0  0  0  0  0  0  0  0  0
    6.8850   -0.2748   20.9720 N   0  0  0  0  0  0  0  0  0  0  0  0
    5.9094   -0.1403   19.9542 C   0  0  0  0  0  0  0  0  0  0  0  0
    6.0768   -0.7949   18.7602 C   0  0  0  0  0  0  0  0  0  0  0  0
    5.2547   -0.6637   17.6933 N   0  0  0  0  0  0  0  0  0  0  0  0
    4.1954    0.0982   17.8428 C   0  0  0  0  0  0  0  0  0  0  0  0
    3.8560    0.7668   19.0543 C   0  0  0  0  0  0  0  0  0  0  0  0
    2.6673    1.5359   19.1843 C   0  0  0  0  0  0  0  0  0  0  0  0
    2.3437    2.1291   20.3744 C   0  0  0  0  0  0  0  0  0  0  0  0
    3.2057    1.9987   21.4891 C   0  0  0  0  0  0  0  0  0  0  0  0
    4.3653    1.2691   21.3868 C   0  0  0  0  0  0  0  0  0  0  0  0
    4.7272    0.6433   20.1583 C   0  0  0  0  0  0  0  0  0  0  0  0
    7.1818   -1.5332   21.6310 C   0  0  0  0  0  0  0  0  0  0  0  0
    8.3319   -1.1704   22.5449 C   0  0  0  0  0  0  0  0  0  0  0  0
    9.0916   -2.0997   23.1176 C   0  0  0  0  0  0  0  0  0  0  0  0
    8.8168   -3.4065   22.9529 F   0  0  0  0  0  0  0  0  0  0  0  0
  1  2  1  0
  2  3  1  0
  3  4  2  0
  3  5  1  0
  5  6  1  0
  6  7  1  0
  7  8  2  0
  7  9  1  0
  9 10  2  0
 10 11  1  0
 11 12  2  0
 12 13  1  0
 12 14  1  0
 15 14  1  1
 15 16  1  0
 16 17  1  0
 17 18  1  6
 18 19  2  0
 18 20  1  0
 20 21  1  0
 21 22  2  0
 22 23  1  0
 23 24  2  0
 24 25  1  0
 25 26  2  0
 26 27  1  0
 27 28  2  0
 28 29  1  0
 29 30  2  0
 20 31  1  0
 31 32  1  0
 32 33  2  0
 33 34  1  0
 16  6  1  1
 32 17  1  0
 15  9  1  0
 30 21  1  0
 17 15  1  0
 30 25  1  0
M  END
>  <cnnaffinities>  (133) 
[5.9545]

>  <score>  (133) 
5.9545

>  <index>  (133) 
65

>  <Smiles>  (133) 
C(N(C(=O)C(N1C(=O)C2=C(C(=C(Cl)C([C@]32[C@@]1([C@@]13C(=O)N(c2c(nc(c3c(c(c(c(c23)[H])[H])[H])[H])[H])[H])C(/C/1=C(\F)/[H])([H])[H])[H])([H])[H])[H])[H])([H])[H])[H])([H])([H])[H]

>  <h>  (133) 
<NA>

>  <Training>  (133) 
True

>  <Success>  (133) 
True

>  <enamine_searched>  (133) 
False

>  <enamine_id>  (133) 
nan

$$$$

     RDKit          3D

 58 63  0  0  0  0  0  0  0  0999 V2000
   -4.6121    3.7593  -24.1896 C   0  0  0  0  0  0  0  0  0  0  0  0
   -5.6328    2.6780  -24.2782 C   0  0  0  0  0  0  0  0  0  0  0  0
   -5.6662    1.6490  -25.2502 C   0  0  0  0  0  0  0  0  0  0  0  0
   -6.7604    0.9267  -24.9038 C   0  0  0  0  0  0  0  0  0  0  0  0
   -7.3341   -0.2882  -25.5630 C   0  0  0  0  0  0  0  0  0  0  0  0
   -8.1632   -1.0914  -24.7011 N   0  0  0  0  0  0  0  0  0  0  0  0
   -7.5895   -2.2923  -24.1197 C   0  0  0  0  0  0  0  0  0  0  0  0
   -8.2333   -2.6370  -22.7518 C   0  0  2  0  0  0  0  0  0  0  0  0
   -7.8825   -1.5313  -21.7189 C   0  0  0  0  0  0  0  0  0  0  0  0
   -8.4106   -0.4537  -21.5731 O   0  0  0  0  0  0  0  0  0  0  0  0
   -6.8097   -1.9766  -20.9727 N   0  0  0  0  0  0  0  0  0  0  0  0
   -6.1766   -1.1525  -20.0056 C   0  0  0  0  0  0  0  0  0  0  0  0
   -6.5463   -1.2426  -18.6883 C   0  0  0  0  0  0  0  0  0  0  0  0
   -6.0134   -0.5016  -17.6835 N   0  0  0  0  0  0  0  0  0  0  0  0
   -5.0729    0.3596  -18.0002 C   0  0  0  0  0  0  0  0  0  0  0  0
   -4.5699    0.5401  -19.3223 C   0  0  0  0  0  0  0  0  0  0  0  0
   -3.5540    1.4877  -19.6308 C   0  0  0  0  0  0  0  0  0  0  0  0
   -3.1036    1.6254  -20.9155 C   0  0  0  0  0  0  0  0  0  0  0  0
   -3.6390    0.8252  -21.9528 C   0  0  0  0  0  0  0  0  0  0  0  0
   -4.6243   -0.0904  -21.6833 C   0  0  0  0  0  0  0  0  0  0  0  0
   -5.1238   -0.2494  -20.3621 C   0  0  0  0  0  0  0  0  0  0  0  0
   -6.3487   -3.2988  -21.3522 C   0  0  0  0  0  0  0  0  0  0  0  0
   -7.5589   -3.8747  -22.0993 C   0  0  2  0  0  0  0  0  0  0  0  0
   -7.2312   -5.0332  -23.0317 C   0  0  0  0  0  0  0  0  0  0  0  0
   -9.7277   -2.7100  -22.9768 C   0  0  0  0  0  0  0  0  0  0  0  0
  -10.5511   -3.5867  -22.2635 C   0  0  0  0  0  0  0  0  0  0  0  0
  -11.9200   -3.4996  -22.4142 C   0  0  0  0  0  0  0  0  0  0  0  0
  -12.6932   -4.3334  -21.6976 F   0  0  0  0  0  0  0  0  0  0  0  0
  -12.5324   -2.5768  -23.2561 C   0  0  0  0  0  0  0  0  0  0  0  0
  -11.7172   -1.7216  -23.9728 C   0  0  0  0  0  0  0  0  0  0  0  0
  -10.3276   -1.7778  -23.8420 C   0  0  0  0  0  0  0  0  0  0  0  0
   -9.5019   -0.8141  -24.6478 C   0  0  0  0  0  0  0  0  0  0  0  0
   -9.9945    0.1326  -25.2413 O   0  0  0  0  0  0  0  0  0  0  0  0
   -7.3393    1.4512  -23.8254 O   0  0  0  0  0  0  0  0  0  0  0  0
   -6.6321    2.5692  -23.4270 N   0  0  0  0  0  0  0  0  0  0  0  0
   -4.9768    4.6210  -23.6316 H   0  0  0  0  0  0  0  0  0  0  0  0
   -3.7128    3.3818  -23.6969 H   0  0  0  0  0  0  0  0  0  0  0  0
   -4.3077    4.0722  -25.1901 H   0  0  0  0  0  0  0  0  0  0  0  0
   -4.9857    1.4740  -26.0760 H   0  0  0  0  0  0  0  0  0  0  0  0
   -6.4925   -0.8859  -25.9211 H   0  0  0  0  0  0  0  0  0  0  0  0
   -7.9028    0.0027  -26.4514 H   0  0  0  0  0  0  0  0  0  0  0  0
   -6.5148   -2.1243  -23.9866 H   0  0  0  0  0  0  0  0  0  0  0  0
   -7.7235   -3.1282  -24.8195 H   0  0  0  0  0  0  0  0  0  0  0  0
   -7.3297   -1.9374  -18.3931 H   0  0  0  0  0  0  0  0  0  0  0  0
   -4.6541    0.9639  -17.1928 H   0  0  0  0  0  0  0  0  0  0  0  0
   -3.1534    2.1088  -18.8307 H   0  0  0  0  0  0  0  0  0  0  0  0
   -2.3291    2.3550  -21.1486 H   0  0  0  0  0  0  0  0  0  0  0  0
   -3.2667    0.9295  -22.9692 H   0  0  0  0  0  0  0  0  0  0  0  0
   -5.0371   -0.7067  -22.4787 H   0  0  0  0  0  0  0  0  0  0  0  0
   -6.0873   -3.8826  -20.4674 H   0  0  0  0  0  0  0  0  0  0  0  0
   -5.4641   -3.2761  -22.0106 H   0  0  0  0  0  0  0  0  0  0  0  0
   -8.2353   -4.2438  -21.3246 H   0  0  0  0  0  0  0  0  0  0  0  0
   -6.4516   -4.7572  -23.7467 H   0  0  0  0  0  0  0  0  0  0  0  0
   -8.1048   -5.3416  -23.6146 H   0  0  0  0  0  0  0  0  0  0  0  0
   -6.8755   -5.9058  -22.4764 H   0  0  0  0  0  0  0  0  0  0  0  0
  -10.1479   -4.3389  -21.5933 H   0  0  0  0  0  0  0  0  0  0  0  0
  -13.6162   -2.5390  -23.3228 H   0  0  0  0  0  0  0  0  0  0  0  0
  -12.1499   -0.9927  -24.6488 H   0  0  0  0  0  0  0  0  0  0  0  0
  1  2  1  0
  2  3  1  0
  3  4  2  0
  4  5  1  0
  5  6  1  0
  6  7  1  0
  8  7  1  6
  8  9  1  0
  9 10  2  0
  9 11  1  0
 11 12  1  0
 12 13  2  0
 13 14  1  0
 14 15  2  0
 15 16  1  0
 16 17  2  0
 17 18  1  0
 18 19  2  0
 19 20  1  0
 20 21  2  0
 11 22  1  0
 22 23  1  0
 23 24  1  0
  8 25  1  0
 25 26  2  0
 26 27  1  0
 27 28  1  0
 27 29  2  0
 29 30  1  0
 30 31  2  0
 31 32  1  0
 32 33  2  0
  4 34  1  0
 34 35  1  0
 35  2  2  0
 32  6  1  0
 23  8  1  0
 31 25  1  0
 21 12  1  0
 21 16  1  0
  1 36  1  0
  1 37  1  0
  1 38  1  0
  3 39  1  0
  5 40  1  0
  5 41  1  0
  7 42  1  0
  7 43  1  0
 13 44  1  0
 15 45  1  0
 17 46  1  0
 18 47  1  0
 19 48  1  0
 20 49  1  0
 22 50  1  0
 22 51  1  0
 23 52  1  1
 24 53  1  0
 24 54  1  0
 24 55  1  0
 26 56  1  0
 29 57  1  0
 30 58  1  0
M  END
>  <RMSD>  (134) 
0.056292195293873644

$$$$

     RDKit          3D

 25 28  0  0  0  0  0  0  0  0999 V2000
    5.3166   -2.0058   21.8448 O   0  0  0  0  0  0  0  0  0  0  0  0
    6.4487   -1.5554   21.9060 C   0  0  0  0  0  0  0  0  0  0  0  0
    6.8718   -0.3514   21.0668 C   0  0  0  0  0  0  0  0  0  0  0  0
    5.9154   -0.1152   19.9539 C   0  0  0  0  0  0  0  0  0  0  0  0
    6.1221   -0.7295   18.7521 C   0  0  0  0  0  0  0  0  0  0  0  0
    5.3195   -0.6107   17.6662 N   0  0  0  0  0  0  0  0  0  0  0  0
    4.2477    0.1355   17.8188 C   0  0  0  0  0  0  0  0  0  0  0  0
    3.8843    0.7903   19.0287 C   0  0  0  0  0  0  0  0  0  0  0  0
    2.7199    1.5861   19.1500 C   0  0  0  0  0  0  0  0  0  0  0  0
    2.3920    2.1614   20.3496 C   0  0  0  0  0  0  0  0  0  0  0  0
    3.2186    1.9778   21.4809 C   0  0  0  0  0  0  0  0  0  0  0  0
    4.3647    1.2365   21.3857 C   0  0  0  0  0  0  0  0  0  0  0  0
    4.7318    0.6404   20.1493 C   0  0  0  0  0  0  0  0  0  0  0  0
    7.4197   -2.1003   22.6975 N   0  0  0  0  0  0  0  0  0  0  0  0
    7.2977   -3.5120   23.0555 C   0  0  0  0  0  0  0  0  0  0  0  0
    7.7170   -3.7396   24.5054 C   0  0  0  0  0  0  0  0  0  0  0  0
    9.0491   -3.0549   24.8761 C   0  0  1  0  0  0  0  0  0  0  0  0
   10.2293   -3.8434   24.2713 C   0  0  0  0  0  0  0  0  0  0  0  0
   11.6049   -3.2152   24.5178 C   0  0  0  0  0  0  0  0  0  0  0  0
   11.6349   -1.7439   24.1460 C   0  0  0  0  0  0  0  0  0  0  0  0
   11.6247   -1.6525   22.7662 F   0  0  0  0  0  0  0  0  0  0  0  0
   12.8254   -1.1880   24.5368 F   0  0  0  0  0  0  0  0  0  0  0  0
   10.4693   -0.9447   24.7144 C   0  0  0  0  0  0  0  0  0  0  0  0
    9.0986   -1.5834   24.4053 C   0  0  1  0  0  0  0  0  0  0  0  0
    8.7352   -1.5034   22.9168 C   0  0  0  0  0  0  0  0  0  0  0  0
  1  2  2  0
  2  3  1  0
  3  4  1  0
  4  5  2  0
  5  6  1  0
  6  7  2  0
  7  8  1  0
  8  9  2  0
  9 10  1  0
 10 11  2  0
 11 12  1  0
 12 13  2  0
  2 14  1  0
 14 15  1  0
 15 16  1  0
 17 16  1  6
 17 18  1  0
 18 19  1  0
 19 20  1  0
 20 21  1  0
 20 22  1  0
 20 23  1  0
 24 23  1  6
 24 25  1  0
 13  4  1  0
 25 14  1  0
 13  8  1  0
 24 17  1  0
M  END
>  <cnnaffinities>  (135) 
[5.82527, 5.78101, 5.78599, 5.38251, 5.38252, 5.86894, 5.56959, 5.56957, 5.67149, 5.47461]

>  <score>  (135) 
5.82527

>  <index>  (135) 
66

>  <Smiles>  (135) 
O=C(C(c1c(nc(c2c(c(c(c(c12)[H])[H])[H])[H])[H])[H])([H])[H])N1C(C([C@]2(C(C(C(F)(F)C([C@]2(C1([H])[H])[H])([H])[H])([H])[H])([H])[H])[H])([H])[H])([H])[H]

>  <h>  (135) 
<NA>

>  <Training>  (135) 
True

>  <Success>  (135) 
True

>  <enamine_searched>  (135) 
False

>  <enamine_id>  (135) 
nan

$$$$

     RDKit          3D

 69 74  0  0  0  0  0  0  0  0999 V2000
    6.2762    4.1143   22.2459 C   0  0  0  0  0  0  0  0  0  0  0  0
    6.8848    3.2244   23.2437 N   0  0  0  0  0  0  0  0  0  0  0  0
    5.9981    2.8251   24.3629 C   0  0  0  0  0  0  0  0  0  0  0  0
    6.7533    1.9103   25.3435 C   0  0  0  0  0  0  0  0  0  0  0  0
    7.6555    0.9826   24.6783 N   0  0  0  0  0  0  0  0  0  0  0  0
    7.1503   -0.2917   24.2018 C   0  0  0  0  0  0  0  0  0  0  0  0
    7.8660   -0.7684   22.9046 C   0  0  2  0  0  0  0  0  0  0  0  0
    7.3920    0.0973   21.7163 C   0  0  0  0  0  0  0  0  0  0  0  0
    7.6637    1.2756   21.5180 O   0  0  0  0  0  0  0  0  0  0  0  0
    6.5427   -0.6300   20.9315 N   0  0  0  0  0  0  0  0  0  0  0  0
    5.8821   -0.0517   19.8183 C   0  0  0  0  0  0  0  0  0  0  0  0
    6.2928   -0.3618   18.5484 C   0  0  0  0  0  0  0  0  0  0  0  0
    5.7606    0.1713   17.4211 N   0  0  0  0  0  0  0  0  0  0  0  0
    4.7710    1.0224   17.5713 C   0  0  0  0  0  0  0  0  0  0  0  0
    4.2202    1.3958   18.8325 C   0  0  0  0  0  0  0  0  0  0  0  0
    3.1265    2.2968   18.9448 C   0  0  0  0  0  0  0  0  0  0  0  0
    2.6045    2.6103   20.1713 C   0  0  0  0  0  0  0  0  0  0  0  0
    3.1468    2.0389   21.3452 C   0  0  0  0  0  0  0  0  0  0  0  0
    4.2087    1.1725   21.2642 C   0  0  0  0  0  0  0  0  0  0  0  0
    4.7837    0.8389   20.0022 C   0  0  0  0  0  0  0  0  0  0  0  0
    6.1821   -1.9097   21.5057 C   0  0  0  0  0  0  0  0  0  0  0  0
    7.3631   -2.1556   22.4524 C   0  0  2  0  0  0  0  0  0  0  0  0
    7.0685   -3.1726   23.5394 C   0  0  0  0  0  0  0  0  0  0  0  0
    6.9790   -4.3990   22.8540 O   0  0  0  0  0  0  0  0  0  0  0  0
    6.7512   -5.5831   23.5878 C   0  0  0  0  0  0  0  0  0  0  0  0
    7.0317   -6.6466   22.6123 C   0  0  0  0  0  0  0  0  0  0  0  0
    5.3095   -7.6561   21.7013 F   0  0  0  0  0  0  0  0  0  0  0  0
    7.2601   -7.9314   22.9588 C   0  0  0  0  0  0  0  0  0  0  0  0
    7.3964   -7.9668   23.1516 C   0  0  0  0  0  0  0  0  0  0  0  0
    9.3671   -0.6746   23.1228 C   0  0  0  0  0  0  0  0  0  0  0  0
   10.2985   -1.5859   22.5975 C   0  0  0  0  0  0  0  0  0  0  0  0
   11.6513   -1.3977   22.8210 C   0  0  0  0  0  0  0  0  0  0  0  0
   12.7859   -2.5578   22.1852 Cl  0  0  0  0  0  0  0  0  0  0  0  0
   12.1378   -0.2988   23.5266 C   0  0  0  0  0  0  0  0  0  0  0  0
   11.2292    0.6154   24.0195 C   0  0  0  0  0  0  0  0  0  0  0  0
    9.8619    0.4176   23.8475 C   0  0  0  0  0  0  0  0  0  0  0  0
    8.9266    1.4060   24.4634 C   0  0  0  0  0  0  0  0  0  0  0  0
    9.2798    2.5547   24.7415 O   0  0  0  0  0  0  0  0  0  0  0  0
    5.2607    3.7763   22.0135 H   0  0  0  0  0  0  0  0  0  0  0  0
    6.8597    4.0768   21.3237 H   0  0  0  0  0  0  0  0  0  0  0  0
    6.2238    5.1470   22.6025 H   0  0  0  0  0  0  0  0  0  0  0  0
    7.7450    3.6354   23.6401 H   0  0  0  0  0  0  0  0  0  0  0  0
    7.2016    2.3711   22.7458 H   0  0  0  0  0  0  0  0  0  0  0  0
    5.6310    3.7074   24.9017 H   0  0  0  0  0  0  0  0  0  0  0  0
    5.1130    2.3129   23.9610 H   0  0  0  0  0  0  0  0  0  0  0  0
    7.3805    2.5167   26.0005 H   0  0  0  0  0  0  0  0  0  0  0  0
    6.0519    1.3474   25.9689 H   0  0  0  0  0  0  0  0  0  0  0  0
    6.0769   -0.1817   24.0094 H   0  0  0  0  0  0  0  0  0  0  0  0
    7.2791   -1.0460   24.9862 H   0  0  0  0  0  0  0  0  0  0  0  0
    7.1123   -1.0645   18.4026 H   0  0  0  0  0  0  0  0  0  0  0  0
    4.3460    1.4567   16.6649 H   0  0  0  0  0  0  0  0  0  0  0  0
    2.7193    2.7301   18.0349 H   0  0  0  0  0  0  0  0  0  0  0  0
    1.7710    3.3031   20.2526 H   0  0  0  0  0  0  0  0  0  0  0  0
    2.7353    2.3097   22.3159 H   0  0  0  0  0  0  0  0  0  0  0  0
    4.6135    0.7293   22.1695 H   0  0  0  0  0  0  0  0  0  0  0  0
    5.2259   -1.8685   22.0525 H   0  0  0  0  0  0  0  0  0  0  0  0
    6.0836   -2.6658   20.7245 H   0  0  0  0  0  0  0  0  0  0  0  0
    8.1375   -2.5878   21.8228 H   0  0  0  0  0  0  0  0  0  0  0  0
    6.1303   -2.9243   24.0665 H   0  0  0  0  0  0  0  0  0  0  0  0
    7.8721   -3.1750   24.2960 H   0  0  0  0  0  0  0  0  0  0  0  0
    5.7007   -5.5555   23.9671 H   0  0  0  0  0  0  0  0  0  0  0  0
    7.4080   -5.5940   24.4965 H   0  0  0  0  0  0  0  0  0  0  0  0
    8.2124   -8.7219   22.5422 H   0  0  0  0  0  0  0  0  0  0  0  0
    6.4896   -8.8383   23.1164 H   0  0  0  0  0  0  0  0  0  0  0  0
    6.1979   -7.2033   22.0110 H   0  0  0  0  0  0  0  0  0  0  0  0
    8.1449   -7.7100   24.5877 H   0  0  0  0  0  0  0  0  0  0  0  0
    9.9945   -2.4410   22.0032 H   0  0  0  0  0  0  0  0  0  0  0  0
   13.2042   -0.1725   23.6762 H   0  0  0  0  0  0  0  0  0  0  0  0
   11.5513    1.5016   24.5530 H   0  0  0  0  0  0  0  0  0  0  0  0
  1  2  1  0
  2  3  1  0
  3  4  1  0
  4  5  1  0
  5  6  1  0
  7  6  1  1
  7  8  1  0
  8  9  2  0
  8 10  1  0
 10 11  1  0
 11 12  2  0
 12 13  1  0
 13 14  2  0
 14 15  1  0
 15 16  2  0
 16 17  1  0
 17 18  2  0
 18 19  1  0
 19 20  2  0
 10 21  1  0
 21 22  1  0
 22 23  1  0
 23 24  1  0
 24 25  1  0
 25 26  1  0
 26 27  1  0
 26 28  1  0
 28 29  1  0
  7 30  1  0
 30 31  2  0
 31 32  1  0
 32 33  1  0
 32 34  2  0
 34 35  1  0
 35 36  2  0
 36 37  1  0
 37 38  2  0
 37  5  1  0
 22  7  1  0
 29 26  1  0
 36 30  1  0
 20 11  1  0
 20 15  1  0
  1 39  1  0
  1 40  1  0
  1 41  1  0
  2 42  1  0
  2 43  1  0
  3 44  1  0
  3 45  1  0
  4 46  1  0
  4 47  1  0
  6 48  1  0
  6 49  1  0
 12 50  1  0
 14 51  1  0
 16 52  1  0
 17 53  1  0
 18 54  1  0
 19 55  1  0
 21 56  1  0
 21 57  1  0
 22 58  1  6
 23 59  1  0
 23 60  1  0
 25 61  1  0
 25 62  1  0
 28 63  1  0
 28 64  1  0
 29 65  1  0
 29 66  1  0
 31 67  1  0
 34 68  1  0
 35 69  1  0
M  CHG  1   2   1
M  END
>  <RMSD>  (136) 
0.16159389125779391

$$$$

     RDKit          3D

 34 39  0  0  0  0  0  0  0  0999 V2000
   -7.9836    0.8543  -21.6132 O   0  0  0  0  0  0  0  0  0  0  0  0
   -8.0194   -0.3050  -21.9764 C   0  0  0  0  0  0  0  0  0  0  0  0
   -7.4327   -1.4416  -21.1361 C   0  0  0  0  0  0  0  0  0  0  0  0
   -6.5774   -0.8888  -20.0574 C   0  0  0  0  0  0  0  0  0  0  0  0
   -6.9089   -1.0689  -18.7425 C   0  0  0  0  0  0  0  0  0  0  0  0
   -6.2437   -0.5367  -17.6903 N   0  0  0  0  0  0  0  0  0  0  0  0
   -5.2025    0.2167  -17.9808 C   0  0  0  0  0  0  0  0  0  0  0  0
   -4.7525    0.4887  -19.3039 C   0  0  0  0  0  0  0  0  0  0  0  0
   -3.6500    1.3386  -19.5644 C   0  0  0  0  0  0  0  0  0  0  0  0
   -3.2622    1.6154  -20.8478 C   0  0  0  0  0  0  0  0  0  0  0  0
   -3.9637    1.0513  -21.9349 C   0  0  0  0  0  0  0  0  0  0  0  0
   -5.0330    0.2221  -21.7097 C   0  0  0  0  0  0  0  0  0  0  0  0
   -5.4581   -0.0752  -20.3824 C   0  0  0  0  0  0  0  0  0  0  0  0
   -8.5263   -0.6796  -23.2005 N   0  0  0  0  0  0  0  0  0  0  0  0
   -8.5687    0.3608  -24.2262 C   0  0  0  0  0  0  0  0  0  0  0  0
   -7.8600   -0.0722  -25.4850 C   0  0  0  0  0  0  0  0  0  0  0  0
   -6.6890   -0.8246  -25.4512 C   0  0  0  0  0  0  0  0  0  0  0  0
   -6.0985   -1.2526  -26.6334 C   0  0  0  0  0  0  0  0  0  0  0  0
   -6.6525   -0.9244  -27.8637 C   0  0  0  0  0  0  0  0  0  0  0  0
   -7.8157   -0.1713  -27.8890 C   0  0  0  0  0  0  0  0  0  0  0  0
   -8.4931    0.2796  -29.4243 Cl  0  0  0  0  0  0  0  0  0  0  0  0
   -8.4329    0.2325  -26.7113 C   0  0  0  0  0  0  0  0  0  0  0  0
   -9.3121   -1.8994  -23.3705 C   0  0  2  0  0  0  0  0  0  0  0  0
   -8.5936   -3.2746  -23.4930 C   0  0  0  0  0  0  0  0  0  0  0  0
   -9.6596   -4.1772  -24.1767 C   0  0  0  0  0  0  0  0  0  0  0  0
  -10.8634   -3.2528  -24.2742 C   0  0  2  0  0  0  0  0  0  0  0  0
  -10.2136   -1.9328  -24.6180 C   0  0  0  0  0  0  0  0  0  0  0  0
  -11.3478   -3.0463  -22.8266 N   0  0  2  0  0  0  0  0  0  0  0  0
  -12.7445   -2.6238  -22.5704 C   0  0  0  0  0  0  0  0  0  0  0  0
  -13.2757   -1.5804  -23.5345 C   0  0  0  0  0  0  0  0  0  0  0  0
  -14.7784   -1.4404  -23.4242 C   0  0  0  0  0  0  0  0  0  0  0  0
  -14.6625   -0.2483  -22.6310 O   0  0  0  0  0  0  0  0  0  0  0  0
  -13.3051   -0.1110  -23.0892 C   0  0  0  0  0  0  0  0  0  0  0  0
  -10.3573   -2.0779  -22.2544 C   0  0  0  0  0  0  0  0  0  0  0  0
  1  2  2  0
  2  3  1  0
  3  4  1  0
  4  5  2  0
  5  6  1  0
  6  7  2  0
  7  8  1  0
  8  9  2  0
  9 10  1  0
 10 11  2  0
 11 12  1  0
 12 13  2  0
  2 14  1  0
 14 15  1  0
 15 16  1  0
 16 17  2  0
 17 18  1  0
 18 19  2  0
 19 20  1  0
 20 21  1  0
 20 22  2  0
 23 14  1  1
 23 24  1  0
 24 25  1  0
 26 25  1  1
 26 27  1  0
 26 28  1  0
 28 29  1  6
 29 30  1  0
 30 31  1  0
 31 32  1  0
 32 33  1  0
 28 34  1  0
 13  4  1  0
 22 16  1  0
 27 23  1  0
 33 30  1  0
 13  8  1  0
 34 23  1  0
M  CHG  1  28   1
M  END
>  <cnnaffinities>  (137) 
[6.05603, 5.97339, 6.02527, 6.0841]

>  <score>  (137) 
6.05603

>  <index>  (137) 
8

>  <Smiles>  (137) 
O=C(C(c1c(nc(c2c(c(c(c(c12)[H])[H])[H])[H])[H])[H])([H])[H])N(C(c1c(c(c(c(Cl)c1[H])[H])[H])[H])([H])[H])[C@]12C(C([C@](C1([H])[H])([N@+](C(C1(C(OC1([H])[H])([H])[H])[H])([H])[H])(C2([H])[H])[H])[H])([H])[H])([H])[H]

>  <h>  (137) 
<NA>

>  <Training>  (137) 
True

>  <Success>  (137) 
True

>  <enamine_searched>  (137) 
False

>  <enamine_id>  (137) 
nan

$$$$

     RDKit          3D

 57 62  0  0  0  0  0  0  0  0999 V2000
    5.4481    4.7791   21.4633 C   0  0  0  0  0  0  0  0  0  0  0  0
    5.8349    4.1988   22.7784 C   0  0  0  0  0  0  0  0  0  0  0  0
    6.1515    2.9682   23.0693 N   0  0  0  0  0  0  0  0  0  0  0  0
    6.4137    3.0489   24.4112 C   0  0  0  0  0  0  0  0  0  0  0  0
    6.7753    1.8337   25.2024 C   0  0  0  0  0  0  0  0  0  0  0  0
    7.6666    0.9360   24.4924 N   0  0  0  0  0  0  0  0  0  0  0  0
    7.2034   -0.3879   24.1175 C   0  0  0  0  0  0  0  0  0  0  0  0
    7.9215   -0.9132   22.8444 C   0  0  2  0  0  0  0  0  0  0  0  0
    7.5463   -0.0311   21.6211 C   0  0  0  0  0  0  0  0  0  0  0  0
    8.0345    1.0222   21.2835 O   0  0  0  0  0  0  0  0  0  0  0  0
    6.5269   -0.6656   20.9388 N   0  0  0  0  0  0  0  0  0  0  0  0
    5.8812   -0.0594   19.8290 C   0  0  0  0  0  0  0  0  0  0  0  0
    6.3074   -0.3449   18.5573 C   0  0  0  0  0  0  0  0  0  0  0  0
    5.7678    0.1760   17.4270 N   0  0  0  0  0  0  0  0  0  0  0  0
    4.7649    1.0135   17.5677 C   0  0  0  0  0  0  0  0  0  0  0  0
    4.2009    1.3829   18.8246 C   0  0  0  0  0  0  0  0  0  0  0  0
    3.1144    2.2964   18.9407 C   0  0  0  0  0  0  0  0  0  0  0  0
    2.6052    2.6165   20.1705 C   0  0  0  0  0  0  0  0  0  0  0  0
    3.1506    2.0420   21.3406 C   0  0  0  0  0  0  0  0  0  0  0  0
    4.1982    1.1562   21.2561 C   0  0  0  0  0  0  0  0  0  0  0  0
    4.7620    0.8179   19.9971 C   0  0  0  0  0  0  0  0  0  0  0  0
    6.1346   -1.9310   21.5285 C   0  0  0  0  0  0  0  0  0  0  0  0
    7.3515   -2.2863   22.3958 C   0  0  2  0  0  0  0  0  0  0  0  0
    7.0623   -3.2919   23.5032 C   0  0  0  0  0  0  0  0  0  0  0  0
    9.4086   -0.8484   23.1168 C   0  0  0  0  0  0  0  0  0  0  0  0
   10.3129   -1.7745   22.5863 C   0  0  0  0  0  0  0  0  0  0  0  0
   11.6677   -1.5702   22.7566 C   0  0  0  0  0  0  0  0  0  0  0  0
   12.5188   -2.4586   22.2138 F   0  0  0  0  0  0  0  0  0  0  0  0
   12.1877   -0.4777   23.4450 C   0  0  0  0  0  0  0  0  0  0  0  0
   11.2921    0.4284   23.9826 C   0  0  0  0  0  0  0  0  0  0  0  0
    9.9131    0.2543   23.8282 C   0  0  0  0  0  0  0  0  0  0  0  0
    8.9895    1.2782   24.4324 C   0  0  0  0  0  0  0  0  0  0  0  0
    9.3903    2.3464   24.8702 O   0  0  0  0  0  0  0  0  0  0  0  0
    6.2462    4.2308   24.9306 N   0  0  0  0  0  0  0  0  0  0  0  0
    5.8750    5.0065   23.8384 O   0  0  0  0  0  0  0  0  0  0  0  0
    4.3755    4.9907   21.4264 H   0  0  0  0  0  0  0  0  0  0  0  0
    5.6551    4.0418   20.6941 H   0  0  0  0  0  0  0  0  0  0  0  0
    5.9800    5.7114   21.2474 H   0  0  0  0  0  0  0  0  0  0  0  0
    5.8607    1.2788   25.4282 H   0  0  0  0  0  0  0  0  0  0  0  0
    7.2236    2.1459   26.1476 H   0  0  0  0  0  0  0  0  0  0  0  0
    7.3669   -1.0898   24.9493 H   0  0  0  0  0  0  0  0  0  0  0  0
    6.1274   -0.3197   23.9253 H   0  0  0  0  0  0  0  0  0  0  0  0
    7.1422   -1.0259   18.4082 H   0  0  0  0  0  0  0  0  0  0  0  0
    4.3390    1.4418   16.6595 H   0  0  0  0  0  0  0  0  0  0  0  0
    2.7085    2.7431   18.0347 H   0  0  0  0  0  0  0  0  0  0  0  0
    1.7841    3.3265   20.2588 H   0  0  0  0  0  0  0  0  0  0  0  0
    2.7534    2.3114   22.3173 H   0  0  0  0  0  0  0  0  0  0  0  0
    4.6300    0.7391   22.1632 H   0  0  0  0  0  0  0  0  0  0  0  0
    5.9413   -2.6723   20.7504 H   0  0  0  0  0  0  0  0  0  0  0  0
    5.2255   -1.8556   22.1489 H   0  0  0  0  0  0  0  0  0  0  0  0
    8.0817   -2.7312   21.7152 H   0  0  0  0  0  0  0  0  0  0  0  0
    7.9315   -3.4372   24.1528 H   0  0  0  0  0  0  0  0  0  0  0  0
    6.7828   -4.2687   23.0970 H   0  0  0  0  0  0  0  0  0  0  0  0
    6.2413   -2.9520   24.1411 H   0  0  0  0  0  0  0  0  0  0  0  0
    9.9816   -2.6548   22.0442 H   0  0  0  0  0  0  0  0  0  0  0  0
   13.2652   -0.3567   23.5314 H   0  0  0  0  0  0  0  0  0  0  0  0
   11.6524    1.2899   24.5341 H   0  0  0  0  0  0  0  0  0  0  0  0
  1  2  1  0
  2  3  2  0
  3  4  1  0
  4  5  1  0
  5  6  1  0
  6  7  1  0
  8  7  1  1
  8  9  1  0
  9 10  2  0
  9 11  1  0
 11 12  1  0
 12 13  2  0
 13 14  1  0
 14 15  2  0
 15 16  1  0
 16 17  2  0
 17 18  1  0
 18 19  2  0
 19 20  1  0
 20 21  2  0
 11 22  1  0
 22 23  1  0
 23 24  1  0
  8 25  1  0
 25 26  2  0
 26 27  1  0
 27 28  1  0
 27 29  2  0
 29 30  1  0
 30 31  2  0
 31 32  1  0
 32 33  2  0
  4 34  2  0
 34 35  1  0
 35  2  1  0
 32  6  1  0
 23  8  1  0
 31 25  1  0
 21 12  1  0
 21 16  1  0
  1 36  1  0
  1 37  1  0
  1 38  1  0
  5 39  1  0
  5 40  1  0
  7 41  1  0
  7 42  1  0
 13 43  1  0
 15 44  1  0
 17 45  1  0
 18 46  1  0
 19 47  1  0
 20 48  1  0
 22 49  1  0
 22 50  1  0
 23 51  1  6
 24 52  1  0
 24 53  1  0
 24 54  1  0
 26 55  1  0
 29 56  1  0
 30 57  1  0
M  END
>  <RMSD>  (138) 
0.17405482092923602

$$$$

     RDKit          3D

 63 67  0  0  0  0  0  0  0  0999 V2000
   -4.6133   -4.6681  -19.7918 C   0  0  0  0  0  0  0  0  0  0  0  0
   -4.6541   -5.1172  -21.1682 C   0  0  0  0  0  0  0  0  0  0  0  0
   -5.9518   -5.4465  -21.6958 C   0  0  0  0  0  0  0  0  0  0  0  0
   -6.8370   -6.0050  -20.9798 O   0  0  0  0  0  0  0  0  0  0  0  0
   -5.9764   -4.8194  -22.8992 N   0  0  0  0  0  0  0  0  0  0  0  0
   -4.8495   -4.2997  -23.6467 C   0  0  0  0  0  0  0  0  0  0  0  0
   -5.3724   -3.1643  -26.2426 C   0  0  0  0  0  0  0  0  0  0  0  0
   -6.9169   -3.1480  -26.5734 C   0  0  0  0  0  0  0  0  0  0  0  0
   -8.4556   -4.0575  -24.3208 C   0  0  0  0  0  0  0  0  0  0  0  0
   -8.0356   -4.9753  -23.5039 C   0  0  0  0  0  0  0  0  0  0  0  0
   -7.2025   -5.6305  -24.4511 C   0  0  0  0  0  0  0  0  0  0  0  0
   -6.4586   -4.6873  -25.0533 C   0  0  0  0  0  0  0  0  0  0  0  0
   -6.9611   -3.2657  -24.8589 C   0  0  0  0  0  0  0  0  0  0  0  0
   -7.7992   -2.9815  -23.3805 C   0  0  0  0  0  0  0  0  0  0  0  0
   -8.0287   -1.7074  -23.1335 N   0  0  1  0  0  0  0  0  0  0  0  0
   -9.0052   -0.9271  -24.0863 C   0  0  0  0  0  0  0  0  0  0  0  0
  -10.4500   -1.0651  -23.7401 C   0  0  0  0  0  0  0  0  0  0  0  0
  -11.2815   -0.0211  -24.0942 C   0  0  0  0  0  0  0  0  0  0  0  0
  -12.6288   -0.0837  -23.7819 C   0  0  0  0  0  0  0  0  0  0  0  0
  -13.1340   -1.1742  -23.0846 C   0  0  0  0  0  0  0  0  0  0  0  0
  -12.2750   -2.1903  -22.7086 C   0  0  0  0  0  0  0  0  0  0  0  0
  -12.8536   -3.4657  -21.6731 Cl  0  0  0  0  0  0  0  0  0  0  0  0
  -10.9467   -2.1773  -23.0538 C   0  0  0  0  0  0  0  0  0  0  0  0
   -7.8090   -1.2411  -21.8182 C   0  0  0  0  0  0  0  0  0  0  0  0
   -8.1717   -0.0914  -21.5332 O   0  0  0  0  0  0  0  0  0  0  0  0
   -6.7863   -2.0649  -21.0105 C   0  0  0  0  0  0  0  0  0  0  0  0
   -6.1113   -1.2207  -19.9920 C   0  0  0  0  0  0  0  0  0  0  0  0
   -6.5223   -1.2721  -18.6633 C   0  0  0  0  0  0  0  0  0  0  0  0
   -6.0311   -0.5026  -17.6790 N   0  0  0  0  0  0  0  0  0  0  0  0
   -5.0744    0.3773  -17.9970 C   0  0  0  0  0  0  0  0  0  0  0  0
   -4.5748    0.5369  -19.3224 C   0  0  0  0  0  0  0  0  0  0  0  0
   -3.5657    1.4868  -19.6289 C   0  0  0  0  0  0  0  0  0  0  0  0
   -3.1096    1.6163  -20.9227 C   0  0  0  0  0  0  0  0  0  0  0  0
   -3.6360    0.8201  -21.9380 C   0  0  0  0  0  0  0  0  0  0  0  0
   -4.6207   -0.1102  -21.6701 C   0  0  0  0  0  0  0  0  0  0  0  0
   -5.1146   -0.2735  -20.3460 C   0  0  0  0  0  0  0  0  0  0  0  0
   -5.1947   -4.1511  -19.1052 H   0  0  0  0  0  0  0  0  0  0  0  0
   -5.1948   -4.1510  -19.1051 H   0  0  0  0  0  0  0  0  0  0  0  0
   -3.8955   -5.5832  -19.9341 H   0  0  0  0  0  0  0  0  0  0  0  0
   -4.4440   -3.3263  -23.3385 H   0  0  0  0  0  0  0  0  0  0  0  0
   -3.9769   -4.8461  -23.9422 H   0  0  0  0  0  0  0  0  0  0  0  0
   -4.5584   -3.7858  -26.7896 H   0  0  0  0  0  0  0  0  0  0  0  0
   -4.7290   -2.1842  -26.0923 H   0  0  0  0  0  0  0  0  0  0  0  0
   -7.5906   -2.2541  -26.8926 H   0  0  0  0  0  0  0  0  0  0  0  0
   -7.5101   -3.8946  -27.3131 H   0  0  0  0  0  0  0  0  0  0  0  0
   -7.0147   -6.6889  -24.6734 H   0  0  0  0  0  0  0  0  0  0  0  0
   -5.7974   -4.9846  -25.8362 H   0  0  0  0  0  0  0  0  0  0  0  0
   -6.1809   -2.4363  -24.5799 H   0  0  0  0  0  0  0  0  0  0  0  0
   -7.1787   -1.2457  -23.5509 H   0  0  0  0  0  0  0  0  0  0  0  0
   -8.7831   -1.2903  -25.1069 H   0  0  0  0  0  0  0  0  0  0  0  0
   -8.6842    0.0980  -24.0253 H   0  0  0  0  0  0  0  0  0  0  0  0
  -10.8773    0.8498  -24.6044 H   0  0  0  0  0  0  0  0  0  0  0  0
  -13.2785    0.7324  -24.0615 H   0  0  0  0  0  0  0  0  0  0  0  0
  -14.1888   -1.2144  -22.8165 H   0  0  0  0  0  0  0  0  0  0  0  0
  -10.2853   -3.0024  -22.7586 H   0  0  0  0  0  0  0  0  0  0  0  0
   -7.3484   -2.8957  -20.5794 H   0  0  0  0  0  0  0  0  0  0  0  0
   -6.0279   -2.5272  -21.6839 H   0  0  0  0  0  0  0  0  0  0  0  0
   -7.3062   -1.9593  -18.3929 H   0  0  0  0  0  0  0  0  0  0  0  0
   -4.6756    0.9905  -17.2047 H   0  0  0  0  0  0  0  0  0  0  0  0
   -3.1523    2.1220  -18.8487 H   0  0  0  0  0  0  0  0  0  0  0  0
   -2.3358    2.3484  -21.1589 H   0  0  0  0  0  0  0  0  0  0  0  0
   -3.2745    0.9300  -22.9604 H   0  0  0  0  0  0  0  0  0  0  0  0
   -5.0118   -0.7081  -22.4824 H   0  0  0  0  0  0  0  0  0  0  0  0
  1  2  2  0
  2  3  1  0
  3  4  2  0
  3  5  1  0
  5  6  1  0
  6  7  1  0
  7  8  1  0
  8  9  1  0
  9 10  2  0
 10 11  1  0
 11 12  2  0
 12 13  1  0
 13 14  2  0
 14 15  1  0
 15 16  1  0
 16 17  1  0
 17 18  2  0
 18 19  1  0
 19 20  2  0
 20 21  1  0
 21 22  1  0
 21 23  2  0
 15 24  1  0
 24 25  2  0
 24 26  1  0
 26 27  1  0
 27 28  2  0
 28 29  1  0
 29 30  2  0
 30 31  1  0
 31 32  2  0
 32 33  1  0
 33 34  2  0
 34 35  1  0
 35 36  2  0
 10  5  1  0
 23 17  1  0
 36 27  1  0
 14  9  1  0
 36 31  1  0
  1 37  1  0
  1 38  1  0
  2 39  1  0
  6 40  1  0
  6 41  1  0
  7 42  1  0
  7 43  1  0
  8 44  1  0
  8 45  1  0
 11 46  1  0
 12 47  1  0
 13 48  1  0
 15 49  1  6
 16 50  1  0
 16 51  1  0
 18 52  1  0
 19 53  1  0
 20 54  1  0
 23 55  1  0
 26 56  1  0
 26 57  1  0
 28 58  1  0
 30 59  1  0
 32 60  1  0
 33 61  1  0
 34 62  1  0
 35 63  1  0
M  CHG  1  15   1
M  END
>  <RMSD>  (139) 
0.02846481944259657

$$$$

     RDKit          3D

 52 54  0  0  0  0  0  0  0  0999 V2000
   -8.1768    1.2319  -26.5542 C   0  0  0  0  0  0  0  0  0  0  0  0
   -8.2500   -0.3025  -26.4707 C   0  0  0  0  0  0  0  0  0  0  0  0
   -8.3361   -0.8887  -27.8804 C   0  0  0  0  0  0  0  0  0  0  0  0
   -9.4083   -0.6776  -25.5276 C   0  0  0  0  0  0  0  0  0  0  0  0
   -9.7414   -2.1606  -25.1925 C   0  0  0  0  0  0  0  0  0  0  0  0
  -10.6367   -2.8415  -26.2378 C   0  0  0  0  0  0  0  0  0  0  0  0
  -10.5744   -2.1273  -23.8744 C   0  0  0  0  0  0  0  0  0  0  0  0
   -9.8965   -2.8655  -22.7365 C   0  0  0  0  0  0  0  0  0  0  0  0
   -8.5019   -2.4621  -22.6171 N   0  0  0  0  0  0  0  0  0  0  0  0
   -8.0973   -1.9198  -21.4265 C   0  0  0  0  0  0  0  0  0  0  0  0
   -8.8818   -1.3251  -20.7022 O   0  0  0  0  0  0  0  0  0  0  0  0
   -6.6678   -2.2090  -20.9710 C   0  0  0  0  0  0  0  0  0  0  0  0
   -6.1031   -1.2283  -19.9843 C   0  0  0  0  0  0  0  0  0  0  0  0
   -6.5197   -1.2582  -18.6752 C   0  0  0  0  0  0  0  0  0  0  0  0
   -6.0285   -0.4788  -17.6754 N   0  0  0  0  0  0  0  0  0  0  0  0
   -5.0947    0.3831  -18.0072 C   0  0  0  0  0  0  0  0  0  0  0  0
   -4.5750    0.5386  -19.3223 C   0  0  0  0  0  0  0  0  0  0  0  0
   -3.5531    1.4752  -19.6309 C   0  0  0  0  0  0  0  0  0  0  0  0
   -3.1110    1.6176  -20.9175 C   0  0  0  0  0  0  0  0  0  0  0  0
   -3.6375    0.8134  -21.9502 C   0  0  0  0  0  0  0  0  0  0  0  0
   -4.6208   -0.1040  -21.6756 C   0  0  0  0  0  0  0  0  0  0  0  0
   -5.1041   -0.2809  -20.3502 C   0  0  0  0  0  0  0  0  0  0  0  0
   -7.6413   -2.6433  -23.7825 C   0  0  0  0  0  0  0  0  0  0  0  0
   -8.4913   -3.0399  -24.9875 C   0  0  0  0  0  0  0  0  0  0  0  0
   -9.1311    1.6599  -26.8966 H   0  0  0  0  0  0  0  0  0  0  0  0
   -7.9460    1.6770  -25.5800 H   0  0  0  0  0  0  0  0  0  0  0  0
   -7.4099    1.5593  -27.2646 H   0  0  0  0  0  0  0  0  0  0  0  0
   -7.3221   -0.6582  -25.9962 H   0  0  0  0  0  0  0  0  0  0  0  0
   -7.3941   -0.7690  -28.4316 H   0  0  0  0  0  0  0  0  0  0  0  0
   -8.5785   -1.9563  -27.8823 H   0  0  0  0  0  0  0  0  0  0  0  0
   -9.1077   -0.3483  -28.4293 H   0  0  0  0  0  0  0  0  0  0  0  0
  -10.3498   -0.2116  -25.8695 H   0  0  0  0  0  0  0  0  0  0  0  0
   -9.1685   -0.1768  -24.5767 H   0  0  0  0  0  0  0  0  0  0  0  0
  -11.6329   -2.3843  -26.2183 H   0  0  0  0  0  0  0  0  0  0  0  0
  -10.2583   -2.8061  -27.2628 H   0  0  0  0  0  0  0  0  0  0  0  0
  -10.7578   -3.8982  -25.9877 H   0  0  0  0  0  0  0  0  0  0  0  0
  -11.5778   -2.5371  -24.0382 H   0  0  0  0  0  0  0  0  0  0  0  0
  -10.7189   -1.0889  -23.5586 H   0  0  0  0  0  0  0  0  0  0  0  0
  -10.3839   -2.6267  -21.7918 H   0  0  0  0  0  0  0  0  0  0  0  0
   -9.9475   -3.9529  -22.8883 H   0  0  0  0  0  0  0  0  0  0  0  0
   -6.0106   -2.3420  -21.8301 H   0  0  0  0  0  0  0  0  0  0  0  0
   -6.7253   -3.1969  -20.4866 H   0  0  0  0  0  0  0  0  0  0  0  0
   -7.2861   -1.9712  -18.3764 H   0  0  0  0  0  0  0  0  0  0  0  0
   -4.6944    1.0045  -17.2043 H   0  0  0  0  0  0  0  0  0  0  0  0
   -3.1412    2.0786  -18.8256 H   0  0  0  0  0  0  0  0  0  0  0  0
   -2.3558    2.3613  -21.1556 H   0  0  0  0  0  0  0  0  0  0  0  0
   -3.2660    0.9284  -22.9667 H   0  0  0  0  0  0  0  0  0  0  0  0
   -5.0257   -0.6975  -22.4901 H   0  0  0  0  0  0  0  0  0  0  0  0
   -6.8903   -3.4199  -23.5886 H   0  0  0  0  0  0  0  0  0  0  0  0
   -7.0859   -1.7193  -24.0029 H   0  0  0  0  0  0  0  0  0  0  0  0
   -8.8253   -4.0724  -24.8271 H   0  0  0  0  0  0  0  0  0  0  0  0
   -7.8772   -3.0605  -25.8933 H   0  0  0  0  0  0  0  0  0  0  0  0
  1  2  1  0
  2  3  1  0
  2  4  1  0
  4  5  1  0
  5  6  1  0
  5  7  1  0
  7  8  1  0
  8  9  1  0
  9 10  1  0
 10 11  2  0
 10 12  1  0
 12 13  1  0
 13 14  2  0
 14 15  1  0
 15 16  2  0
 16 17  1  0
 17 18  2  0
 18 19  1  0
 19 20  2  0
 20 21  1  0
 21 22  2  0
  9 23  1  0
 23 24  1  0
 24  5  1  0
 22 13  1  0
 22 17  1  0
  1 25  1  0
  1 26  1  0
  1 27  1  0
  2 28  1  0
  3 29  1  0
  3 30  1  0
  3 31  1  0
  4 32  1  0
  4 33  1  0
  6 34  1  0
  6 35  1  0
  6 36  1  0
  7 37  1  0
  7 38  1  0
  8 39  1  0
  8 40  1  0
 12 41  1  0
 12 42  1  0
 14 43  1  0
 16 44  1  0
 18 45  1  0
 19 46  1  0
 20 47  1  0
 21 48  1  0
 23 49  1  0
 23 50  1  0
 24 51  1  0
 24 52  1  0
M  END
>  <RMSD>  (140) 
0.036005321516068854

$$$$

     RDKit          3D

 37 41  0  0  0  0  0  0  0  0999 V2000
    3.7930    3.1662   26.9143 C   0  0  0  0  0  0  0  0  0  0  0  0
    3.2664    1.7305   26.7811 C   0  0  0  0  0  0  0  0  0  0  0  0
    4.1674    0.9513   25.8527 C   0  0  0  0  0  0  0  0  0  0  0  0
    3.9129    0.8505   24.6645 O   0  0  0  0  0  0  0  0  0  0  0  0
    5.3235    0.4385   26.4234 N   0  0  0  0  0  0  0  0  0  0  0  0
    5.3104   -0.0125   27.8222 C   0  0  0  0  0  0  0  0  0  0  0  0
    6.6588   -0.5819   28.2143 C   0  0  0  0  0  0  0  0  0  0  0  0
    7.1154   -1.5839   27.1570 C   0  0  0  0  0  0  0  0  0  0  0  0
    7.3515   -0.7966   25.9021 C   0  0  0  0  0  0  0  0  0  0  0  0
    8.4696   -0.9763   25.0982 C   0  0  0  0  0  0  0  0  0  0  0  0
    8.6558   -0.2118   23.9548 C   0  0  0  0  0  0  0  0  0  0  0  0
    7.7215    0.7764   23.6516 C   0  0  0  0  0  0  0  0  0  0  0  0
    7.8731    1.5216   22.4558 N   0  0  0  0  0  0  0  0  0  0  0  0
    8.3328    2.9041   22.5490 C   0  0  0  0  0  0  0  0  0  0  0  0
    7.1882    3.8743   22.7437 C   0  0  0  0  0  0  0  0  0  0  0  0
    6.2798    4.0375   21.7029 C   0  0  0  0  0  0  0  0  0  0  0  0
    5.1865    4.8832   21.8394 C   0  0  0  0  0  0  0  0  0  0  0  0
    4.9529    5.5431   23.0405 C   0  0  0  0  0  0  0  0  0  0  0  0
    5.8477    5.3489   24.0825 C   0  0  0  0  0  0  0  0  0  0  0  0
    5.5237    6.1008   25.6253 Cl  0  0  0  0  0  0  0  0  0  0  0  0
    6.9763    4.5482   23.9453 C   0  0  0  0  0  0  0  0  0  0  0  0
    7.6895    0.9444   21.2233 C   0  0  0  0  0  0  0  0  0  0  0  0
    8.1426    1.4448   20.2149 O   0  0  0  0  0  0  0  0  0  0  0  0
    6.8757   -0.3550   21.1254 C   0  0  0  0  0  0  0  0  0  0  0  0
    5.8657   -0.2097   20.0225 C   0  0  0  0  0  0  0  0  0  0  0  0
    6.0650   -0.7777   18.7911 C   0  0  0  0  0  0  0  0  0  0  0  0
    5.2592   -0.6071   17.7110 N   0  0  0  0  0  0  0  0  0  0  0  0
    4.2185    0.1839   17.8549 C   0  0  0  0  0  0  0  0  0  0  0  0
    3.9195    0.8640   19.0698 C   0  0  0  0  0  0  0  0  0  0  0  0
    2.8316    1.7538   19.2096 C   0  0  0  0  0  0  0  0  0  0  0  0
    2.1447    2.0553   18.0958 F   0  0  0  0  0  0  0  0  0  0  0  0
    2.4410    2.2802   20.4055 C   0  0  0  0  0  0  0  0  0  0  0  0
    3.2453    2.0186   21.5308 C   0  0  0  0  0  0  0  0  0  0  0  0
    4.3905    1.2685   21.4232 C   0  0  0  0  0  0  0  0  0  0  0  0
    4.7381    0.6427   20.1978 C   0  0  0  0  0  0  0  0  0  0  0  0
    6.6308    1.0166   24.4652 C   0  0  0  0  0  0  0  0  0  0  0  0
    6.4315    0.2089   25.5828 C   0  0  0  0  0  0  0  0  0  0  0  0
  1  2  1  0
  2  3  1  0
  3  4  2  0
  3  5  1  0
  5  6  1  0
  6  7  1  0
  7  8  1  0
  8  9  1  0
  9 10  2  0
 10 11  1  0
 11 12  2  0
 12 13  1  0
 13 14  1  0
 14 15  1  0
 15 16  2  0
 16 17  1  0
 17 18  2  0
 18 19  1  0
 19 20  1  0
 19 21  2  0
 13 22  1  0
 22 23  2  0
 22 24  1  0
 24 25  1  0
 25 26  2  0
 26 27  1  0
 27 28  2  0
 28 29  1  0
 29 30  2  0
 30 31  1  0
 30 32  1  0
 32 33  2  0
 33 34  1  0
 34 35  2  0
 12 36  1  0
 36 37  2  0
 37  5  1  0
 37  9  1  0
 21 15  1  0
 35 25  1  0
 35 29  1  0
M  END
>  <cnnaffinities>  (141) 
[6.22617, 6.32806, 6.58774, 6.72164, 6.46541, 6.84748, 6.9595]

>  <score>  (141) 
6.22617

>  <index>  (141) 
69

>  <Smiles>  (141) 
C(C(C(=O)N1C(C(C(c2c(c(c(N(C(c3c(c(c(c(Cl)c3[H])[H])[H])[H])([H])[H])C(=O)C(c3c(nc(c4c(F)c(c(c(c34)[H])[H])[H])[H])[H])([H])[H])c(c12)[H])[H])[H])([H])[H])([H])[H])([H])[H])([H])[H])([H])([H])[H]

>  <h>  (141) 
<NA>

>  <Training>  (141) 
True

>  <Success>  (141) 
True

>  <enamine_searched>  (141) 
False

>  <enamine_id>  (141) 
nan

$$$$

     RDKit          3D

 57 62  0  0  0  0  0  0  0  0999 V2000
    7.0639   -3.2919   23.5020 C   0  0  0  0  0  0  0  0  0  0  0  0
    7.3527   -2.2864   22.3949 C   0  0  1  0  0  0  0  0  0  0  0  0
    6.1366   -1.9325   21.5280 C   0  0  0  0  0  0  0  0  0  0  0  0
    6.5282   -0.6673   20.9371 N   0  0  0  0  0  0  0  0  0  0  0  0
    5.8809   -0.0598   19.8289 C   0  0  0  0  0  0  0  0  0  0  0  0
    6.3055   -0.3466   18.5561 C   0  0  0  0  0  0  0  0  0  0  0  0
    5.7659    0.1740   17.4263 N   0  0  0  0  0  0  0  0  0  0  0  0
    4.7634    1.0121   17.5689 C   0  0  0  0  0  0  0  0  0  0  0  0
    4.2043    1.3841   18.8258 C   0  0  0  0  0  0  0  0  0  0  0  0
    3.1185    2.2992   18.9421 C   0  0  0  0  0  0  0  0  0  0  0  0
    2.6067    2.6185   20.1708 C   0  0  0  0  0  0  0  0  0  0  0  0
    3.1465    2.0416   21.3435 C   0  0  0  0  0  0  0  0  0  0  0  0
    4.2080    1.1727   21.2601 C   0  0  0  0  0  0  0  0  0  0  0  0
    4.7683    0.8248   20.0009 C   0  0  0  0  0  0  0  0  0  0  0  0
    7.5457   -0.0303   21.6200 C   0  0  0  0  0  0  0  0  0  0  0  0
    8.0285    1.0248   21.2829 O   0  0  0  0  0  0  0  0  0  0  0  0
    7.9228   -0.9113   22.8417 C   0  0  1  0  0  0  0  0  0  0  0  0
    7.2099   -0.3823   24.1164 C   0  0  0  0  0  0  0  0  0  0  0  0
    7.6824    0.9365   24.5020 N   0  0  0  0  0  0  0  0  0  0  0  0
    6.7540    1.8281   25.1682 C   0  0  0  0  0  0  0  0  0  0  0  0
    6.1029    2.8067   24.2344 C   0  0  0  0  0  0  0  0  0  0  0  0
    4.9167    3.4107   24.4815 N   0  0  0  0  0  0  0  0  0  0  0  0
    4.6850    4.1895   23.4583 N   0  0  0  0  0  0  0  0  0  0  0  0
    5.7104    4.0576   22.6514 N   0  0  0  0  0  0  0  0  0  0  0  0
    5.7815    4.6914   21.3584 C   0  0  0  0  0  0  0  0  0  0  0  0
    6.6165    3.1936   23.0728 N   0  0  0  0  0  0  0  0  0  0  0  0
    9.0077    1.2820   24.4406 C   0  0  0  0  0  0  0  0  0  0  0  0
    9.4184    2.3509   24.8684 O   0  0  0  0  0  0  0  0  0  0  0  0
    9.9199    0.2523   23.8263 C   0  0  0  0  0  0  0  0  0  0  0  0
   11.2975    0.4254   23.9767 C   0  0  0  0  0  0  0  0  0  0  0  0
   12.1915   -0.4812   23.4380 C   0  0  0  0  0  0  0  0  0  0  0  0
   11.6688   -1.5733   22.7508 C   0  0  0  0  0  0  0  0  0  0  0  0
   12.5189   -2.4619   22.2079 F   0  0  0  0  0  0  0  0  0  0  0  0
   10.3132   -1.7758   22.5823 C   0  0  0  0  0  0  0  0  0  0  0  0
    9.4104   -0.8478   23.1144 C   0  0  0  0  0  0  0  0  0  0  0  0
    6.7833   -4.2694   23.0960 H   0  0  0  0  0  0  0  0  0  0  0  0
    7.9334   -3.4377   24.1513 H   0  0  0  0  0  0  0  0  0  0  0  0
    6.2428   -2.9518   24.1404 H   0  0  0  0  0  0  0  0  0  0  0  0
    8.0807   -2.7329   21.7135 H   0  0  0  0  0  0  0  0  0  0  0  0
    5.2267   -1.8565   22.1493 H   0  0  0  0  0  0  0  0  0  0  0  0
    5.9420   -2.6747   20.7496 H   0  0  0  0  0  0  0  0  0  0  0  0
    7.1399   -1.0278   18.4065 H   0  0  0  0  0  0  0  0  0  0  0  0
    4.3364    1.4397   16.6599 H   0  0  0  0  0  0  0  0  0  0  0  0
    2.7094    2.7428   18.0364 H   0  0  0  0  0  0  0  0  0  0  0  0
    1.7822    3.3239   20.2536 H   0  0  0  0  0  0  0  0  0  0  0  0
    2.7399    2.3060   22.3156 H   0  0  0  0  0  0  0  0  0  0  0  0
    4.6326    0.7298   22.1588 H   0  0  0  0  0  0  0  0  0  0  0  0
    7.3703   -1.0845   24.9488 H   0  0  0  0  0  0  0  0  0  0  0  0
    6.1320   -0.3131   23.9309 H   0  0  0  0  0  0  0  0  0  0  0  0
    7.3012    2.3564   25.9556 H   0  0  0  0  0  0  0  0  0  0  0  0
    5.9813    1.2296   25.6653 H   0  0  0  0  0  0  0  0  0  0  0  0
    5.1128    5.5479   21.3591 H   0  0  0  0  0  0  0  0  0  0  0  0
    6.8031    5.0268   21.1904 H   0  0  0  0  0  0  0  0  0  0  0  0
    5.4679    3.9801   20.5898 H   0  0  0  0  0  0  0  0  0  0  0  0
   11.6558    1.2877   24.5275 H   0  0  0  0  0  0  0  0  0  0  0  0
   13.2692   -0.3597   23.5242 H   0  0  0  0  0  0  0  0  0  0  0  0
    9.9824   -2.6570   22.0405 H   0  0  0  0  0  0  0  0  0  0  0  0
  1  2  1  0
  2  3  1  0
  3  4  1  0
  4  5  1  0
  5  6  2  0
  6  7  1  0
  7  8  2  0
  8  9  1  0
  9 10  2  0
 10 11  1  0
 11 12  2  0
 12 13  1  0
 13 14  2  0
  4 15  1  0
 15 16  2  0
 15 17  1  0
 17 18  1  1
 18 19  1  0
 19 20  1  0
 20 21  1  0
 21 22  1  0
 22 23  2  0
 23 24  1  0
 24 25  1  0
 24 26  1  0
 19 27  1  0
 27 28  2  0
 27 29  1  0
 29 30  2  0
 30 31  1  0
 31 32  2  0
 32 33  1  0
 32 34  1  0
 34 35  2  0
 17  2  1  0
 26 21  2  0
 35 29  1  0
 14  5  1  0
 35 17  1  0
 14  9  1  0
  1 36  1  0
  1 37  1  0
  1 38  1  0
  2 39  1  6
  3 40  1  0
  3 41  1  0
  6 42  1  0
  8 43  1  0
 10 44  1  0
 11 45  1  0
 12 46  1  0
 13 47  1  0
 18 48  1  0
 18 49  1  0
 20 50  1  0
 20 51  1  0
 25 52  1  0
 25 53  1  0
 25 54  1  0
 30 55  1  0
 31 56  1  0
 34 57  1  0
M  END
>  <RMSD>  (142) 
0.17383548570678103

$$$$

     RDKit          3D

 50 54  0  0  0  0  0  0  0  0999 V2000
   -7.3239   -5.0568  -22.9692 C   0  0  0  0  0  0  0  0  0  0  0  0
   -7.5986   -3.8791  -22.0344 C   0  0  1  0  0  0  0  0  0  0  0  0
   -6.3449   -3.3213  -21.3350 C   0  0  0  0  0  0  0  0  0  0  0  0
   -6.7813   -1.9944  -20.9451 N   0  0  0  0  0  0  0  0  0  0  0  0
   -6.1504   -1.1732  -19.9852 C   0  0  0  0  0  0  0  0  0  0  0  0
   -6.5499   -1.2360  -18.6740 C   0  0  0  0  0  0  0  0  0  0  0  0
   -6.0253   -0.4818  -17.6758 N   0  0  0  0  0  0  0  0  0  0  0  0
   -5.0787    0.3645  -18.0090 C   0  0  0  0  0  0  0  0  0  0  0  0
   -4.5815    0.5370  -19.3332 C   0  0  0  0  0  0  0  0  0  0  0  0
   -3.5627    1.4754  -19.6354 C   0  0  0  0  0  0  0  0  0  0  0  0
   -3.1015    1.6181  -20.9143 C   0  0  0  0  0  0  0  0  0  0  0  0
   -3.6385    0.8324  -21.9573 C   0  0  0  0  0  0  0  0  0  0  0  0
   -4.6320   -0.0785  -21.6947 C   0  0  0  0  0  0  0  0  0  0  0  0
   -5.1265   -0.2501  -20.3697 C   0  0  0  0  0  0  0  0  0  0  0  0
   -7.9667   -1.6016  -21.5273 C   0  0  0  0  0  0  0  0  0  0  0  0
   -8.5977   -0.6271  -21.1814 O   0  0  0  0  0  0  0  0  0  0  0  0
   -8.2888   -2.6223  -22.6421 C   0  0  1  0  0  0  0  0  0  0  0  0
   -7.6294   -2.1858  -23.9653 C   0  0  0  0  0  0  0  0  0  0  0  0
   -8.3506   -1.0761  -24.5511 N   0  0  0  0  0  0  0  0  0  0  0  0
   -7.7020    0.1794  -24.8133 C   0  0  0  0  0  0  0  0  0  0  0  0
   -7.6761    1.1559  -23.6983 C   0  0  0  0  0  0  0  0  0  0  0  0
   -7.5748    1.9864  -22.8993 N   0  0  0  0  0  0  0  0  0  0  0  0
   -9.6715   -1.2350  -24.9027 C   0  0  0  0  0  0  0  0  0  0  0  0
  -10.1875   -0.6647  -25.8476 O   0  0  0  0  0  0  0  0  0  0  0  0
  -10.4198   -2.1203  -23.9536 C   0  0  0  0  0  0  0  0  0  0  0  0
  -11.8043   -2.1866  -24.1089 C   0  0  0  0  0  0  0  0  0  0  0  0
  -12.5848   -2.8224  -23.1603 C   0  0  0  0  0  0  0  0  0  0  0  0
  -11.9437   -3.3991  -22.0670 C   0  0  0  0  0  0  0  0  0  0  0  0
  -12.6914   -3.9901  -21.1169 F   0  0  0  0  0  0  0  0  0  0  0  0
  -10.5741   -3.3627  -21.8983 C   0  0  0  0  0  0  0  0  0  0  0  0
   -9.7776   -2.7321  -22.8635 C   0  0  0  0  0  0  0  0  0  0  0  0
   -6.9518   -5.9275  -22.4102 H   0  0  0  0  0  0  0  0  0  0  0  0
   -6.5622   -4.8107  -23.7221 H   0  0  0  0  0  0  0  0  0  0  0  0
   -8.2311   -5.3660  -23.5049 H   0  0  0  0  0  0  0  0  0  0  0  0
   -8.2752   -4.2257  -21.2443 H   0  0  0  0  0  0  0  0  0  0  0  0
   -5.4863   -3.2802  -22.0279 H   0  0  0  0  0  0  0  0  0  0  0  0
   -6.0334   -3.8995  -20.4553 H   0  0  0  0  0  0  0  0  0  0  0  0
   -7.3435   -1.9260  -18.3906 H   0  0  0  0  0  0  0  0  0  0  0  0
   -4.6415    0.9639  -17.2108 H   0  0  0  0  0  0  0  0  0  0  0  0
   -3.1674    2.0747  -18.8222 H   0  0  0  0  0  0  0  0  0  0  0  0
   -2.3252    2.3430  -21.1404 H   0  0  0  0  0  0  0  0  0  0  0  0
   -3.2651    0.9532  -22.9696 H   0  0  0  0  0  0  0  0  0  0  0  0
   -5.0326   -0.6843  -22.5029 H   0  0  0  0  0  0  0  0  0  0  0  0
   -7.6375   -3.0293  -24.6671 H   0  0  0  0  0  0  0  0  0  0  0  0
   -6.5940   -1.8750  -23.8002 H   0  0  0  0  0  0  0  0  0  0  0  0
   -6.6703   -0.0217  -25.1028 H   0  0  0  0  0  0  0  0  0  0  0  0
   -8.2292    0.6160  -25.6627 H   0  0  0  0  0  0  0  0  0  0  0  0
  -12.2373   -1.7012  -24.9798 H   0  0  0  0  0  0  0  0  0  0  0  0
  -13.6684   -2.8652  -23.2246 H   0  0  0  0  0  0  0  0  0  0  0  0
  -10.1483   -3.8183  -21.0104 H   0  0  0  0  0  0  0  0  0  0  0  0
  1  2  1  0
  2  3  1  0
  3  4  1  0
  4  5  1  0
  5  6  2  0
  6  7  1  0
  7  8  2  0
  8  9  1  0
  9 10  2  0
 10 11  1  0
 11 12  2  0
 12 13  1  0
 13 14  2  0
  4 15  1  0
 15 16  2  0
 15 17  1  0
 17 18  1  6
 18 19  1  0
 19 20  1  0
 20 21  1  0
 21 22  3  0
 19 23  1  0
 23 24  2  0
 23 25  1  0
 25 26  2  0
 26 27  1  0
 27 28  2  0
 28 29  1  0
 28 30  1  0
 30 31  2  0
 17  2  1  0
 31 25  1  0
 14  5  1  0
 31 17  1  0
 14  9  1  0
  1 32  1  0
  1 33  1  0
  1 34  1  0
  2 35  1  1
  3 36  1  0
  3 37  1  0
  6 38  1  0
  8 39  1  0
 10 40  1  0
 11 41  1  0
 12 42  1  0
 13 43  1  0
 18 44  1  0
 18 45  1  0
 20 46  1  0
 20 47  1  0
 26 48  1  0
 27 49  1  0
 30 50  1  0
M  END
>  <RMSD>  (143) 
0.06555888614720871

$$$$

     RDKit          3D

 59 64  0  0  0  0  0  0  0  0999 V2000
   -7.2369   -5.0304  -23.0343 C   0  0  0  0  0  0  0  0  0  0  0  0
   -7.5640   -3.8709  -22.1020 C   0  0  1  0  0  0  0  0  0  0  0  0
   -6.3522   -3.2982  -21.3547 C   0  0  0  0  0  0  0  0  0  0  0  0
   -6.8105   -1.9765  -20.9728 N   0  0  0  0  0  0  0  0  0  0  0  0
   -6.1766   -1.1528  -20.0046 C   0  0  0  0  0  0  0  0  0  0  0  0
   -6.5485   -1.2412  -18.6881 C   0  0  0  0  0  0  0  0  0  0  0  0
   -6.0143   -0.5009  -17.6832 N   0  0  0  0  0  0  0  0  0  0  0  0
   -5.0742    0.3590  -18.0009 C   0  0  0  0  0  0  0  0  0  0  0  0
   -4.5709    0.5406  -19.3221 C   0  0  0  0  0  0  0  0  0  0  0  0
   -3.5541    1.4885  -19.6319 C   0  0  0  0  0  0  0  0  0  0  0  0
   -3.1033    1.6256  -20.9155 C   0  0  0  0  0  0  0  0  0  0  0  0
   -3.6294    0.8177  -21.9503 C   0  0  0  0  0  0  0  0  0  0  0  0
   -4.6098   -0.1055  -21.6765 C   0  0  0  0  0  0  0  0  0  0  0  0
   -5.1222   -0.2502  -20.3607 C   0  0  0  0  0  0  0  0  0  0  0  0
   -7.8907   -1.5323  -21.7106 C   0  0  0  0  0  0  0  0  0  0  0  0
   -8.4400   -0.4712  -21.5323 O   0  0  0  0  0  0  0  0  0  0  0  0
   -8.2364   -2.6311  -22.7527 C   0  0  1  0  0  0  0  0  0  0  0  0
   -7.5906   -2.2854  -24.1235 C   0  0  0  0  0  0  0  0  0  0  0  0
   -8.1570   -1.0831  -24.7040 N   0  0  0  0  0  0  0  0  0  0  0  0
   -7.3336   -0.2668  -25.5778 C   0  0  0  0  0  0  0  0  0  0  0  0
   -6.9313    1.0376  -24.9437 C   0  0  0  0  0  0  0  0  0  0  0  0
   -6.9305    1.2591  -23.6493 N   0  0  0  0  0  0  0  0  0  0  0  0
   -6.4502    2.5337  -23.4976 C   0  0  0  0  0  0  0  0  0  0  0  0
   -6.1433    3.0776  -24.7180 C   0  0  0  0  0  0  0  0  0  0  0  0
   -6.4499    2.1042  -25.6454 N   0  0  0  0  0  0  0  0  0  0  0  0
   -6.3147    2.1980  -27.0831 C   0  0  0  0  0  0  0  0  0  0  0  0
   -9.4984   -0.8172  -24.6541 C   0  0  0  0  0  0  0  0  0  0  0  0
   -9.9877    0.1335  -25.2446 O   0  0  0  0  0  0  0  0  0  0  0  0
  -10.3296   -1.7773  -23.8456 C   0  0  0  0  0  0  0  0  0  0  0  0
  -11.7197   -1.7164  -23.9729 C   0  0  0  0  0  0  0  0  0  0  0  0
  -12.5360   -2.5708  -23.2553 C   0  0  0  0  0  0  0  0  0  0  0  0
  -11.9252   -3.4957  -22.4129 C   0  0  0  0  0  0  0  0  0  0  0  0
  -12.6994   -4.3291  -21.6966 F   0  0  0  0  0  0  0  0  0  0  0  0
  -10.5556   -3.5830  -22.2636 C   0  0  0  0  0  0  0  0  0  0  0  0
   -9.7310   -2.7068  -22.9778 C   0  0  0  0  0  0  0  0  0  0  0  0
   -6.8809   -5.9043  -22.4789 H   0  0  0  0  0  0  0  0  0  0  0  0
   -8.1116   -5.3384  -23.6167 H   0  0  0  0  0  0  0  0  0  0  0  0
   -6.4566   -4.7542  -23.7505 H   0  0  0  0  0  0  0  0  0  0  0  0
   -8.2403   -4.2398  -21.3268 H   0  0  0  0  0  0  0  0  0  0  0  0
   -5.4662   -3.2736  -22.0134 H   0  0  0  0  0  0  0  0  0  0  0  0
   -6.0890   -3.8829  -20.4695 H   0  0  0  0  0  0  0  0  0  0  0  0
   -7.3319   -1.9363  -18.3939 H   0  0  0  0  0  0  0  0  0  0  0  0
   -4.6547    0.9629  -17.1935 H   0  0  0  0  0  0  0  0  0  0  0  0
   -3.1537    2.1089  -18.8313 H   0  0  0  0  0  0  0  0  0  0  0  0
   -2.3316    2.3547  -21.1537 H   0  0  0  0  0  0  0  0  0  0  0  0
   -3.2765    0.9418  -22.9710 H   0  0  0  0  0  0  0  0  0  0  0  0
   -5.0416   -0.6986  -22.4805 H   0  0  0  0  0  0  0  0  0  0  0  0
   -7.7275   -3.1279  -24.8197 H   0  0  0  0  0  0  0  0  0  0  0  0
   -6.5158   -2.1208  -23.9859 H   0  0  0  0  0  0  0  0  0  0  0  0
   -6.4283   -0.8432  -25.8153 H   0  0  0  0  0  0  0  0  0  0  0  0
   -7.8695   -0.0999  -26.5192 H   0  0  0  0  0  0  0  0  0  0  0  0
   -6.3459    2.9802  -22.5193 H   0  0  0  0  0  0  0  0  0  0  0  0
   -5.7482    4.0431  -25.0026 H   0  0  0  0  0  0  0  0  0  0  0  0
   -7.2868    2.2392  -27.5864 H   0  0  0  0  0  0  0  0  0  0  0  0
   -5.7697    3.1096  -27.3188 H   0  0  0  0  0  0  0  0  0  0  0  0
   -5.7457    1.3548  -27.4870 H   0  0  0  0  0  0  0  0  0  0  0  0
  -12.1536   -0.9866  -24.6471 H   0  0  0  0  0  0  0  0  0  0  0  0
  -13.6214   -2.5331  -23.3208 H   0  0  0  0  0  0  0  0  0  0  0  0
  -10.1530   -4.3361  -21.5930 H   0  0  0  0  0  0  0  0  0  0  0  0
  1  2  1  0
  2  3  1  0
  3  4  1  0
  4  5  1  0
  5  6  2  0
  6  7  1  0
  7  8  2  0
  8  9  1  0
  9 10  2  0
 10 11  1  0
 11 12  2  0
 12 13  1  0
 13 14  2  0
  4 15  1  0
 15 16  2  0
 15 17  1  0
 17 18  1  6
 18 19  1  0
 19 20  1  0
 20 21  1  0
 21 22  2  0
 22 23  1  0
 23 24  2  0
 24 25  1  0
 25 26  1  0
 19 27  1  0
 27 28  2  0
 27 29  1  0
 29 30  2  0
 30 31  1  0
 31 32  2  0
 32 33  1  0
 32 34  1  0
 34 35  2  0
 17  2  1  0
 25 21  1  0
 35 29  1  0
 14  5  1  0
 35 17  1  0
 14  9  1  0
  1 36  1  0
  1 37  1  0
  1 38  1  0
  2 39  1  1
  3 40  1  0
  3 41  1  0
  6 42  1  0
  8 43  1  0
 10 44  1  0
 11 45  1  0
 12 46  1  0
 13 47  1  0
 18 48  1  0
 18 49  1  0
 20 50  1  0
 20 51  1  0
 23 52  1  0
 24 53  1  0
 26 54  1  0
 26 55  1  0
 26 56  1  0
 30 57  1  0
 31 58  1  0
 34 59  1  0
M  END
>  <RMSD>  (144) 
0.057052355867605827

$$$$

     RDKit          3D

 60 64  0  0  0  0  0  0  0  0999 V2000
    6.1101    4.2730   22.3465 C   0  0  0  0  0  0  0  0  0  0  0  0
    6.7184    3.2669   23.1968 N   0  0  0  0  0  0  0  0  0  0  0  0
    6.2192    3.0202   24.4262 C   0  0  0  0  0  0  0  0  0  0  0  0
    5.3361    3.6980   24.9388 O   0  0  0  0  0  0  0  0  0  0  0  0
    6.7854    1.8178   25.1971 C   0  0  0  0  0  0  0  0  0  0  0  0
    7.6831    0.9400   24.4791 N   0  0  0  0  0  0  0  0  0  0  0  0
    7.2052   -0.3793   24.1177 C   0  0  0  0  0  0  0  0  0  0  0  0
    7.9137   -0.9054   22.8493 C   0  0  2  0  0  0  0  0  0  0  0  0
    7.5301   -0.0347   21.6280 C   0  0  0  0  0  0  0  0  0  0  0  0
    7.9996    1.0445   21.3137 O   0  0  0  0  0  0  0  0  0  0  0  0
    6.5302   -0.6760   20.9333 N   0  0  0  0  0  0  0  0  0  0  0  0
    5.8801   -0.0667   19.8252 C   0  0  0  0  0  0  0  0  0  0  0  0
    6.3077   -0.3411   18.5529 C   0  0  0  0  0  0  0  0  0  0  0  0
    5.7641    0.1830   17.4232 N   0  0  0  0  0  0  0  0  0  0  0  0
    4.7584    1.0138   17.5720 C   0  0  0  0  0  0  0  0  0  0  0  0
    4.2063    1.3871   18.8325 C   0  0  0  0  0  0  0  0  0  0  0  0
    3.1177    2.2942   18.9437 C   0  0  0  0  0  0  0  0  0  0  0  0
    2.6013    2.6135   20.1700 C   0  0  0  0  0  0  0  0  0  0  0  0
    3.1457    2.0398   21.3408 C   0  0  0  0  0  0  0  0  0  0  0  0
    4.2057    1.1703   21.2588 C   0  0  0  0  0  0  0  0  0  0  0  0
    4.7747    0.8262   20.0017 C   0  0  0  0  0  0  0  0  0  0  0  0
    6.1265   -1.9372   21.5189 C   0  0  0  0  0  0  0  0  0  0  0  0
    7.3140   -2.2877   22.4305 C   0  0  2  0  0  0  0  0  0  0  0  0
    6.9344   -3.2093   23.4900 N   0  0  0  0  0  0  0  0  0  0  0  0
    7.8913   -4.0160   24.0641 C   0  0  0  0  0  0  0  0  0  0  0  0
    7.4869   -4.7823   25.3088 C   0  0  0  0  0  0  0  0  0  0  0  0
    9.0158   -4.1036   23.6059 O   0  0  0  0  0  0  0  0  0  0  0  0
    9.4094   -0.8307   23.0991 C   0  0  0  0  0  0  0  0  0  0  0  0
   10.3113   -1.7383   22.5379 C   0  0  0  0  0  0  0  0  0  0  0  0
   11.6715   -1.5575   22.7054 C   0  0  0  0  0  0  0  0  0  0  0  0
   12.7732   -2.7146   22.0103 Cl  0  0  0  0  0  0  0  0  0  0  0  0
   12.1863   -0.4774   23.4215 C   0  0  0  0  0  0  0  0  0  0  0  0
   11.3010    0.4235   23.9769 C   0  0  0  0  0  0  0  0  0  0  0  0
    9.9272    0.2500   23.8286 C   0  0  0  0  0  0  0  0  0  0  0  0
    9.0135    1.2647   24.4512 C   0  0  0  0  0  0  0  0  0  0  0  0
    9.4169    2.3362   24.8839 O   0  0  0  0  0  0  0  0  0  0  0  0
    5.0639    4.0156   22.1321 H   0  0  0  0  0  0  0  0  0  0  0  0
    6.1352    5.2611   22.8207 H   0  0  0  0  0  0  0  0  0  0  0  0
    6.6707    4.2996   21.4072 H   0  0  0  0  0  0  0  0  0  0  0  0
    7.5067    2.7439   22.8387 H   0  0  0  0  0  0  0  0  0  0  0  0
    7.2868    2.2076   26.0896 H   0  0  0  0  0  0  0  0  0  0  0  0
    5.9135    1.2448   25.5289 H   0  0  0  0  0  0  0  0  0  0  0  0
    7.3747   -1.0940   24.9329 H   0  0  0  0  0  0  0  0  0  0  0  0
    6.1291   -0.3087   23.9202 H   0  0  0  0  0  0  0  0  0  0  0  0
    7.1411   -1.0260   18.4075 H   0  0  0  0  0  0  0  0  0  0  0  0
    4.3368    1.4383   16.6600 H   0  0  0  0  0  0  0  0  0  0  0  0
    2.7175    2.7334   18.0337 H   0  0  0  0  0  0  0  0  0  0  0  0
    1.7830    3.3236   20.2576 H   0  0  0  0  0  0  0  0  0  0  0  0
    2.7467    2.3166   22.3143 H   0  0  0  0  0  0  0  0  0  0  0  0
    4.6198    0.7379   22.1642 H   0  0  0  0  0  0  0  0  0  0  0  0
    5.9381   -2.6868   20.7458 H   0  0  0  0  0  0  0  0  0  0  0  0
    5.2124   -1.8390   22.1276 H   0  0  0  0  0  0  0  0  0  0  0  0
    8.0787   -2.7978   21.8465 H   0  0  0  0  0  0  0  0  0  0  0  0
    6.1049   -2.9829   24.0289 H   0  0  0  0  0  0  0  0  0  0  0  0
    8.3701   -5.3125   25.6692 H   0  0  0  0  0  0  0  0  0  0  0  0
    7.1392   -4.1117   26.1001 H   0  0  0  0  0  0  0  0  0  0  0  0
    6.6909   -5.5130   25.1366 H   0  0  0  0  0  0  0  0  0  0  0  0
    9.9728   -2.6247   22.0227 H   0  0  0  0  0  0  0  0  0  0  0  0
   13.2565   -0.3507   23.5276 H   0  0  0  0  0  0  0  0  0  0  0  0
   11.6373    1.2943   24.5260 H   0  0  0  0  0  0  0  0  0  0  0  0
  1  2  1  0
  2  3  1  0
  3  4  2  0
  3  5  1  0
  5  6  1  0
  6  7  1  0
  8  7  1  1
  8  9  1  0
  9 10  2  0
  9 11  1  0
 11 12  1  0
 12 13  2  0
 13 14  1  0
 14 15  2  0
 15 16  1  0
 16 17  2  0
 17 18  1  0
 18 19  2  0
 19 20  1  0
 20 21  2  0
 11 22  1  0
 22 23  1  0
 23 24  1  0
 24 25  1  0
 25 26  1  0
 25 27  2  0
  8 28  1  0
 28 29  2  0
 29 30  1  0
 30 31  1  0
 30 32  2  0
 32 33  1  0
 33 34  2  0
 34 35  1  0
 35 36  2  0
 35  6  1  0
 23  8  1  0
 34 28  1  0
 21 12  1  0
 21 16  1  0
  1 37  1  0
  1 38  1  0
  1 39  1  0
  2 40  1  0
  5 41  1  0
  5 42  1  0
  7 43  1  0
  7 44  1  0
 13 45  1  0
 15 46  1  0
 17 47  1  0
 18 48  1  0
 19 49  1  0
 20 50  1  0
 22 51  1  0
 22 52  1  0
 23 53  1  6
 24 54  1  0
 26 55  1  0
 26 56  1  0
 26 57  1  0
 29 58  1  0
 32 59  1  0
 33 60  1  0
M  END
>  <RMSD>  (145) 
0.17567201200996255

$$$$

     RDKit          3D

 23 26  0  0  0  0  0  0  0  0999 V2000
   -8.6552    0.7030  -21.2778 O   0  0  0  0  0  0  0  0  0  0  0  0
   -8.6395   -0.4437  -21.7006 C   0  0  0  0  0  0  0  0  0  0  0  0
   -7.5214   -1.4109  -21.2833 C   0  0  0  0  0  0  0  0  0  0  0  0
   -6.6484   -0.8446  -20.1950 C   0  0  0  0  0  0  0  0  0  0  0  0
   -6.9584   -1.0659  -18.8823 C   0  0  0  0  0  0  0  0  0  0  0  0
   -6.2856   -0.5735  -17.8056 N   0  0  0  0  0  0  0  0  0  0  0  0
   -5.2447    0.1875  -18.0657 C   0  0  0  0  0  0  0  0  0  0  0  0
   -4.7992    0.5096  -19.3767 C   0  0  0  0  0  0  0  0  0  0  0  0
   -3.6634    1.3305  -19.6024 C   0  0  0  0  0  0  0  0  0  0  0  0
   -3.2628    1.6209  -20.8781 C   0  0  0  0  0  0  0  0  0  0  0  0
   -3.9841    1.1140  -21.9793 C   0  0  0  0  0  0  0  0  0  0  0  0
   -5.0923    0.3284  -21.7873 C   0  0  0  0  0  0  0  0  0  0  0  0
   -5.5250   -0.0073  -20.4772 C   0  0  0  0  0  0  0  0  0  0  0  0
   -9.6213   -0.9370  -22.5267 N   0  0  0  0  0  0  0  0  0  0  0  0
   -9.5826   -2.2395  -23.2062 C   0  0  0  0  0  0  0  0  0  0  0  0
  -10.3181   -3.3440  -22.4320 C   0  0  0  0  0  0  0  0  0  0  0  0
  -11.5432   -2.7729  -21.6921 C   0  0  0  0  0  0  0  0  0  0  0  0
  -12.4375   -1.8308  -22.4788 C   0  0  0  0  0  0  0  0  0  0  0  0
  -14.1507   -2.0928  -22.6402 S   0  0  0  0  0  0  0  0  0  0  0  0
  -14.3751   -0.5531  -23.3848 C   0  0  0  0  0  0  0  0  0  0  0  0
  -13.2023    0.1218  -23.5031 C   0  0  0  0  0  0  0  0  0  0  0  0
  -12.0752   -0.6085  -22.9777 C   0  0  0  0  0  0  0  0  0  0  0  0
  -10.6821   -0.0068  -22.9078 C   0  0  0  0  0  0  0  0  0  0  0  0
  1  2  2  0
  2  3  1  0
  3  4  1  0
  4  5  2  0
  5  6  1  0
  6  7  2  0
  7  8  1  0
  8  9  2  0
  9 10  1  0
 10 11  2  0
 11 12  1  0
 12 13  2  0
  2 14  1  0
 14 15  1  0
 15 16  1  0
 16 17  1  0
 17 18  1  0
 18 19  1  0
 19 20  1  0
 20 21  2  0
 21 22  1  0
 22 23  1  0
 13  4  1  0
 23 14  1  0
 13  8  1  0
 22 18  2  0
M  END
>  <cnnaffinities>  (146) 
[5.62526, 5.41941, 5.3597, 5.23042, 5.20166, 5.07236, 5.15493, 5.11482, 5.01826, 5.2796]

>  <score>  (146) 
5.62526

>  <index>  (146) 
72

>  <Smiles>  (146) 
O=C(C(c1c(nc(c2c(c(c(c(c12)[H])[H])[H])[H])[H])[H])([H])[H])N1C(C(C(c2sc(c(c2C1([H])[H])[H])[H])([H])[H])([H])[H])([H])[H]

>  <h>  (146) 
<NA>

>  <Training>  (146) 
True

>  <Success>  (146) 
True

>  <enamine_searched>  (146) 
False

>  <enamine_id>  (146) 
nan

$$$$

     RDKit          3D

 26 29  0  0  0  0  0  0  0  0999 V2000
   -8.6955    0.6361  -21.1861 O   0  0  0  0  0  0  0  0  0  0  0  0
   -8.2375   -0.2399  -21.9000 C   0  0  0  0  0  0  0  0  0  0  0  0
   -7.4468   -1.3980  -21.2719 C   0  0  0  0  0  0  0  0  0  0  0  0
   -6.5786   -0.8642  -20.1675 C   0  0  0  0  0  0  0  0  0  0  0  0
   -6.9028   -1.0693  -18.8540 C   0  0  0  0  0  0  0  0  0  0  0  0
   -6.2315   -0.5602  -17.7856 N   0  0  0  0  0  0  0  0  0  0  0  0
   -5.1931    0.1973  -18.0542 C   0  0  0  0  0  0  0  0  0  0  0  0
   -4.7439    0.5061  -19.3695 C   0  0  0  0  0  0  0  0  0  0  0  0
   -3.6261    1.3498  -19.6049 C   0  0  0  0  0  0  0  0  0  0  0  0
   -3.2311    1.6460  -20.8819 C   0  0  0  0  0  0  0  0  0  0  0  0
   -3.9366    1.1082  -21.9794 C   0  0  0  0  0  0  0  0  0  0  0  0
   -5.0169    0.2856  -21.7790 C   0  0  0  0  0  0  0  0  0  0  0  0
   -5.4547   -0.0358  -20.4623 C   0  0  0  0  0  0  0  0  0  0  0  0
   -8.3558   -0.2207  -23.2729 N   0  0  0  0  0  0  0  0  0  0  0  0
   -8.3821   -1.3945  -24.1469 C   0  0  0  0  0  0  0  0  0  0  0  0
   -7.3026   -1.3203  -25.2261 C   0  0  0  0  0  0  0  0  0  0  0  0
   -7.4129   -0.0005  -25.9896 C   0  0  0  0  0  0  0  0  0  0  0  0
   -7.3602    1.1833  -25.0227 C   0  0  0  0  0  0  0  0  0  0  0  0
   -8.4411    1.0792  -23.9461 C   0  0  1  0  0  0  0  0  0  0  0  0
   -9.8246    1.3632  -24.5494 C   0  0  0  0  0  0  0  0  0  0  0  0
  -10.8778    1.4959  -23.4753 C   0  0  0  0  0  0  0  0  0  0  0  0
  -10.9207    2.6939  -22.7522 C   0  0  0  0  0  0  0  0  0  0  0  0
  -11.9239    2.9310  -21.8218 C   0  0  0  0  0  0  0  0  0  0  0  0
  -12.8799    1.9523  -21.5906 C   0  0  0  0  0  0  0  0  0  0  0  0
  -12.7871    0.7171  -22.2318 C   0  0  0  0  0  0  0  0  0  0  0  0
  -11.7756    0.4700  -23.1616 C   0  0  0  0  0  0  0  0  0  0  0  0
  1  2  2  0
  2  3  1  0
  3  4  1  0
  4  5  2  0
  5  6  1  0
  6  7  2  0
  7  8  1  0
  8  9  2  0
  9 10  1  0
 10 11  2  0
 11 12  1  0
 12 13  2  0
  2 14  1  0
 14 15  1  0
 15 16  1  0
 16 17  1  0
 17 18  1  0
 18 19  1  0
 19 20  1  6
 20 21  1  0
 21 22  2  0
 22 23  1  0
 23 24  2  0
 24 25  1  0
 25 26  2  0
 13  4  1  0
 19 14  1  0
 26 21  1  0
 13  8  1  0
M  END
>  <cnnaffinities>  (147) 
[5.35661, 5.30727, 5.3072, 5.4658, 5.30139, 5.29787, 5.2274, 5.2253, 5.44088]

>  <score>  (147) 
5.35661

>  <index>  (147) 
73

>  <Smiles>  (147) 
O=C(C(c1c(nc(c2c(c(c(c(c12)[H])[H])[H])[H])[H])[H])([H])[H])N1C(C(C(C([C@]1(C(c1c(c(c(c(c1[H])[H])[H])[H])[H])([H])[H])[H])([H])[H])([H])[H])([H])[H])([H])[H]

>  <h>  (147) 
<NA>

>  <Training>  (147) 
True

>  <Success>  (147) 
True

>  <enamine_searched>  (147) 
False

>  <enamine_id>  (147) 
nan

$$$$

     RDKit          3D

 56 61  0  0  0  0  0  0  0  0999 V2000
    7.0673   -3.1356   23.6214 C   0  0  0  0  0  0  0  0  0  0  0  0
    7.3526   -2.1771   22.4747 C   0  0  1  0  0  0  0  0  0  0  0  0
    6.1409   -1.8543   21.5942 C   0  0  0  0  0  0  0  0  0  0  0  0
    6.5519   -0.6252   20.9411 N   0  0  0  0  0  0  0  0  0  0  0  0
    5.8867   -0.0491   19.8280 C   0  0  0  0  0  0  0  0  0  0  0  0
    6.3040   -0.3471   18.5579 C   0  0  0  0  0  0  0  0  0  0  0  0
    5.7568    0.1644   17.4257 N   0  0  0  0  0  0  0  0  0  0  0  0
    4.7570    1.0049   17.5667 C   0  0  0  0  0  0  0  0  0  0  0  0
    4.1994    1.3793   18.8245 C   0  0  0  0  0  0  0  0  0  0  0  0
    3.1221    2.3022   18.9402 C   0  0  0  0  0  0  0  0  0  0  0  0
    2.6152    2.6224   20.1707 C   0  0  0  0  0  0  0  0  0  0  0  0
    3.1499    2.0394   21.3424 C   0  0  0  0  0  0  0  0  0  0  0  0
    4.1952    1.1540   21.2580 C   0  0  0  0  0  0  0  0  0  0  0  0
    4.7590    0.8165   19.9965 C   0  0  0  0  0  0  0  0  0  0  0  0
    7.5710    0.0371   21.5981 C   0  0  0  0  0  0  0  0  0  0  0  0
    8.0628    1.0753   21.2206 O   0  0  0  0  0  0  0  0  0  0  0  0
    7.9253   -0.7891   22.8655 C   0  0  1  0  0  0  0  0  0  0  0  0
    7.1910   -0.1919   24.1034 C   0  0  0  0  0  0  0  0  0  0  0  0
    7.6976    1.1271   24.4567 N   0  0  0  0  0  0  0  0  0  0  0  0
    6.7846    2.1025   25.0330 C   0  0  0  0  0  0  0  0  0  0  0  0
    7.1840    2.7971   26.3693 C   0  0  0  0  0  0  0  0  0  0  0  0
    7.2114    4.1677   25.7001 N   0  0  0  0  0  0  0  0  0  0  0  0
    6.7821    3.5168   24.3903 C   0  0  0  0  0  0  0  0  0  0  0  0
    9.0260    1.4421   24.3680 C   0  0  0  0  0  0  0  0  0  0  0  0
    9.4591    2.5437   24.7179 O   0  0  0  0  0  0  0  0  0  0  0  0
    9.9300    0.3686   23.8388 C   0  0  0  0  0  0  0  0  0  0  0  0
   11.3107    0.5178   23.9985 C   0  0  0  0  0  0  0  0  0  0  0  0
   12.1902   -0.4111   23.4740 C   0  0  0  0  0  0  0  0  0  0  0  0
   11.6701   -1.5082   22.7853 C   0  0  0  0  0  0  0  0  0  0  0  0
   12.7559   -2.6620   22.0611 Cl  0  0  0  0  0  0  0  0  0  0  0  0
   10.3068   -1.6856   22.6308 C   0  0  0  0  0  0  0  0  0  0  0  0
    9.4120   -0.7404   23.1498 C   0  0  0  0  0  0  0  0  0  0  0  0
    7.9324   -3.2382   24.2852 H   0  0  0  0  0  0  0  0  0  0  0  0
    6.8085   -4.1318   23.2500 H   0  0  0  0  0  0  0  0  0  0  0  0
    6.2322   -2.7814   24.2335 H   0  0  0  0  0  0  0  0  0  0  0  0
    8.0793   -2.6487   21.8091 H   0  0  0  0  0  0  0  0  0  0  0  0
    5.2330   -1.7396   22.2140 H   0  0  0  0  0  0  0  0  0  0  0  0
    5.9446   -2.6334   20.8538 H   0  0  0  0  0  0  0  0  0  0  0  0
    7.1393   -1.0285   18.4116 H   0  0  0  0  0  0  0  0  0  0  0  0
    4.3315    1.4325   16.6566 H   0  0  0  0  0  0  0  0  0  0  0  0
    2.7193    2.7579   18.0369 H   0  0  0  0  0  0  0  0  0  0  0  0
    1.7986    3.3347   20.2612 H   0  0  0  0  0  0  0  0  0  0  0  0
    2.7383    2.2965   22.3142 H   0  0  0  0  0  0  0  0  0  0  0  0
    4.6126    0.7130   22.1591 H   0  0  0  0  0  0  0  0  0  0  0  0
    6.1230   -0.0925   23.8782 H   0  0  0  0  0  0  0  0  0  0  0  0
    7.2967   -0.8782   24.9568 H   0  0  0  0  0  0  0  0  0  0  0  0
    5.7844    1.6570   25.0832 H   0  0  0  0  0  0  0  0  0  0  0  0
    6.4371    2.7585   27.1572 H   0  0  0  0  0  0  0  0  0  0  0  0
    8.1509    2.5190   26.7722 H   0  0  0  0  0  0  0  0  0  0  0  0
    6.5159    4.8425   26.0835 H   0  0  0  0  0  0  0  0  0  0  0  0
    8.1820    4.5422   25.6401 H   0  0  0  0  0  0  0  0  0  0  0  0
    5.8166    3.8858   24.0591 H   0  0  0  0  0  0  0  0  0  0  0  0
    7.5180    3.6590   23.6054 H   0  0  0  0  0  0  0  0  0  0  0  0
   11.6875    1.3858   24.5294 H   0  0  0  0  0  0  0  0  0  0  0  0
   13.2672   -0.2915   23.5674 H   0  0  0  0  0  0  0  0  0  0  0  0
    9.9582   -2.5664   22.1013 H   0  0  0  0  0  0  0  0  0  0  0  0
  1  2  1  0
  2  3  1  0
  3  4  1  0
  4  5  1  0
  5  6  2  0
  6  7  1  0
  7  8  2  0
  8  9  1  0
  9 10  2  0
 10 11  1  0
 11 12  2  0
 12 13  1  0
 13 14  2  0
  4 15  1  0
 15 16  2  0
 15 17  1  0
 17 18  1  1
 18 19  1  0
 19 20  1  0
 20 21  1  0
 21 22  1  0
 22 23  1  0
 19 24  1  0
 24 25  2  0
 24 26  1  0
 26 27  2  0
 27 28  1  0
 28 29  2  0
 29 30  1  0
 29 31  1  0
 31 32  2  0
 17  2  1  0
 23 20  1  0
 32 26  1  0
 14  5  1  0
 32 17  1  0
 14  9  1  0
  1 33  1  0
  1 34  1  0
  1 35  1  0
  2 36  1  6
  3 37  1  0
  3 38  1  0
  6 39  1  0
  8 40  1  0
 10 41  1  0
 11 42  1  0
 12 43  1  0
 13 44  1  0
 18 45  1  0
 18 46  1  0
 20 47  1  0
 21 48  1  0
 21 49  1  0
 22 50  1  0
 22 51  1  0
 23 52  1  0
 23 53  1  0
 27 54  1  0
 28 55  1  0
 31 56  1  0
M  CHG  1  22   1
M  END
>  <RMSD>  (148) 
0.16199744767389387

$$$$

     RDKit          3D

 55 60  0  0  0  0  0  0  0  0999 V2000
    7.0684   -3.2828   23.5079 C   0  0  0  0  0  0  0  0  0  0  0  0
    7.3556   -2.2817   22.3974 C   0  0  1  0  0  0  0  0  0  0  0  0
    6.1397   -1.9243   21.5324 C   0  0  0  0  0  0  0  0  0  0  0  0
    6.5326   -0.6602   20.9395 N   0  0  0  0  0  0  0  0  0  0  0  0
    5.8837   -0.0562   19.8307 C   0  0  0  0  0  0  0  0  0  0  0  0
    6.3063   -0.3448   18.5589 C   0  0  0  0  0  0  0  0  0  0  0  0
    5.7648    0.1758   17.4288 N   0  0  0  0  0  0  0  0  0  0  0  0
    4.7624    1.0130   17.5680 C   0  0  0  0  0  0  0  0  0  0  0  0
    4.2010    1.3814   18.8254 C   0  0  0  0  0  0  0  0  0  0  0  0
    3.1166    2.2975   18.9401 C   0  0  0  0  0  0  0  0  0  0  0  0
    2.6101    2.6209   20.1685 C   0  0  0  0  0  0  0  0  0  0  0  0
    3.1456    2.0358   21.3387 C   0  0  0  0  0  0  0  0  0  0  0  0
    4.1941    1.1510   21.2564 C   0  0  0  0  0  0  0  0  0  0  0  0
    4.7612    0.8168   19.9987 C   0  0  0  0  0  0  0  0  0  0  0  0
    7.5457   -0.0206   21.6247 C   0  0  0  0  0  0  0  0  0  0  0  0
    8.0220    1.0413   21.2949 O   0  0  0  0  0  0  0  0  0  0  0  0
    7.9276   -0.9091   22.8428 C   0  0  1  0  0  0  0  0  0  0  0  0
    7.2125   -0.3825   24.1136 C   0  0  0  0  0  0  0  0  0  0  0  0
    7.6775    0.9374   24.4819 N   0  0  0  0  0  0  0  0  0  0  0  0
    6.7780    1.8252   25.1811 C   0  0  0  0  0  0  0  0  0  0  0  0
    6.4235    3.0488   24.3966 C   0  0  0  0  0  0  0  0  0  0  0  0
    6.2453    4.3565   24.9060 C   0  0  0  0  0  0  0  0  0  0  0  0
    5.8907    5.0712   23.8160 C   0  0  0  0  0  0  0  0  0  0  0  0
    5.8539    4.2790   22.7375 O   0  0  0  0  0  0  0  0  0  0  0  0
    6.1874    2.9942   23.1066 N   0  0  0  0  0  0  0  0  0  0  0  0
    8.9974    1.2906   24.4248 C   0  0  0  0  0  0  0  0  0  0  0  0
    9.3976    2.3595   24.8599 O   0  0  0  0  0  0  0  0  0  0  0  0
    9.9210    0.2637   23.8235 C   0  0  0  0  0  0  0  0  0  0  0  0
   11.3000    0.4371   23.9759 C   0  0  0  0  0  0  0  0  0  0  0  0
   12.1941   -0.4704   23.4380 C   0  0  0  0  0  0  0  0  0  0  0  0
   11.6724   -1.5633   22.7530 C   0  0  0  0  0  0  0  0  0  0  0  0
   12.5213   -2.4528   22.2105 F   0  0  0  0  0  0  0  0  0  0  0  0
   10.3182   -1.7682   22.5841 C   0  0  0  0  0  0  0  0  0  0  0  0
    9.4157   -0.8410   23.1143 C   0  0  0  0  0  0  0  0  0  0  0  0
    6.2487   -2.9421   24.1453 H   0  0  0  0  0  0  0  0  0  0  0  0
    7.9372   -3.4276   24.1575 H   0  0  0  0  0  0  0  0  0  0  0  0
    6.7881   -4.2593   23.1043 H   0  0  0  0  0  0  0  0  0  0  0  0
    8.0833   -2.7297   21.7170 H   0  0  0  0  0  0  0  0  0  0  0  0
    5.9468   -2.6672   20.7566 H   0  0  0  0  0  0  0  0  0  0  0  0
    5.2320   -1.8490   22.1546 H   0  0  0  0  0  0  0  0  0  0  0  0
    7.1414   -1.0251   18.4078 H   0  0  0  0  0  0  0  0  0  0  0  0
    4.3359    1.4406   16.6580 H   0  0  0  0  0  0  0  0  0  0  0  0
    2.7087    2.7446   18.0338 H   0  0  0  0  0  0  0  0  0  0  0  0
    1.7891    3.3301   20.2599 H   0  0  0  0  0  0  0  0  0  0  0  0
    2.7519    2.3098   22.3147 H   0  0  0  0  0  0  0  0  0  0  0  0
    4.6314    0.7367   22.1634 H   0  0  0  0  0  0  0  0  0  0  0  0
    7.3744   -1.0776   24.9509 H   0  0  0  0  0  0  0  0  0  0  0  0
    6.1362   -0.3095   23.9230 H   0  0  0  0  0  0  0  0  0  0  0  0
    7.2203    2.1299   26.1307 H   0  0  0  0  0  0  0  0  0  0  0  0
    5.8640    1.2745   25.4143 H   0  0  0  0  0  0  0  0  0  0  0  0
    6.3661    4.6834   25.9301 H   0  0  0  0  0  0  0  0  0  0  0  0
    5.6414    6.1160   23.6590 H   0  0  0  0  0  0  0  0  0  0  0  0
   11.6633    1.2981   24.5256 H   0  0  0  0  0  0  0  0  0  0  0  0
   13.2712   -0.3490   23.5234 H   0  0  0  0  0  0  0  0  0  0  0  0
    9.9857   -2.6492   22.0446 H   0  0  0  0  0  0  0  0  0  0  0  0
  1  2  1  0
  2  3  1  0
  3  4  1  0
  4  5  1  0
  5  6  2  0
  6  7  1  0
  7  8  2  0
  8  9  1  0
  9 10  2  0
 10 11  1  0
 11 12  2  0
 12 13  1  0
 13 14  2  0
  4 15  1  0
 15 16  2  0
 15 17  1  0
 17 18  1  1
 18 19  1  0
 19 20  1  0
 20 21  1  0
 21 22  1  0
 22 23  2  0
 23 24  1  0
 24 25  1  0
 19 26  1  0
 26 27  2  0
 26 28  1  0
 28 29  2  0
 29 30  1  0
 30 31  2  0
 31 32  1  0
 31 33  1  0
 33 34  2  0
 17  2  1  0
 25 21  2  0
 34 28  1  0
 14  5  1  0
 34 17  1  0
 14  9  1  0
  1 35  1  0
  1 36  1  0
  1 37  1  0
  2 38  1  6
  3 39  1  0
  3 40  1  0
  6 41  1  0
  8 42  1  0
 10 43  1  0
 11 44  1  0
 12 45  1  0
 13 46  1  0
 18 47  1  0
 18 48  1  0
 20 49  1  0
 20 50  1  0
 22 51  1  0
 23 52  1  0
 29 53  1  0
 30 54  1  0
 33 55  1  0
M  END
>  <RMSD>  (149) 
0.17220761969790904

$$$$

     RDKit          3D

 70 75  0  0  0  0  0  0  0  0999 V2000
    4.7075    8.6142   25.0283 C   0  0  0  0  0  0  0  0  0  0  0  0
    5.9818    8.8947   24.4990 O   0  0  0  0  0  0  0  0  0  0  0  0
    6.5766    7.8789   23.8151 C   0  0  0  0  0  0  0  0  0  0  0  0
    7.8810    8.1422   23.3911 C   0  0  0  0  0  0  0  0  0  0  0  0
    8.6206    7.1462   22.7748 C   0  0  0  0  0  0  0  0  0  0  0  0
    8.0554    5.8908   22.5577 C   0  0  0  0  0  0  0  0  0  0  0  0
    6.7175    5.6629   22.8618 C   0  0  0  0  0  0  0  0  0  0  0  0
    6.1210    4.3266   22.4448 C   0  0  0  0  0  0  0  0  0  0  0  0
    6.6884    3.2039   23.1759 N   0  0  0  0  0  0  0  0  0  0  0  0
    6.2123    2.9492   24.4161 C   0  0  0  0  0  0  0  0  0  0  0  0
    5.3202    3.6127   24.9302 O   0  0  0  0  0  0  0  0  0  0  0  0
    6.8278    1.7965   25.2145 C   0  0  0  0  0  0  0  0  0  0  0  0
    7.7065    0.9101   24.4849 N   0  0  0  0  0  0  0  0  0  0  0  0
    7.2125   -0.3966   24.0861 C   0  0  0  0  0  0  0  0  0  0  0  0
    7.9247   -0.9169   22.8093 C   0  0  2  0  0  0  0  0  0  0  0  0
    7.5220   -0.0274   21.6052 C   0  0  0  0  0  0  0  0  0  0  0  0
    7.9654    1.0675   21.3105 O   0  0  0  0  0  0  0  0  0  0  0  0
    6.5185   -0.6732   20.9201 N   0  0  0  0  0  0  0  0  0  0  0  0
    5.8693   -0.0695   19.8153 C   0  0  0  0  0  0  0  0  0  0  0  0
    6.3073   -0.3413   18.5452 C   0  0  0  0  0  0  0  0  0  0  0  0
    5.7702    0.1858   17.4157 N   0  0  0  0  0  0  0  0  0  0  0  0
    4.7630    1.0146   17.5725 C   0  0  0  0  0  0  0  0  0  0  0  0
    4.2107    1.3839   18.8333 C   0  0  0  0  0  0  0  0  0  0  0  0
    3.1261    2.2944   18.9417 C   0  0  0  0  0  0  0  0  0  0  0  0
    2.6128    2.6147   20.1682 C   0  0  0  0  0  0  0  0  0  0  0  0
    3.1526    2.0460   21.3440 C   0  0  0  0  0  0  0  0  0  0  0  0
    4.2060    1.1683   21.2677 C   0  0  0  0  0  0  0  0  0  0  0  0
    4.7681    0.8211   20.0040 C   0  0  0  0  0  0  0  0  0  0  0  0
    6.1194   -1.9350   21.5151 C   0  0  0  0  0  0  0  0  0  0  0  0
    7.3485   -2.2912   22.3629 C   0  0  2  0  0  0  0  0  0  0  0  0
    7.0757   -3.3078   23.4652 C   0  0  0  0  0  0  0  0  0  0  0  0
    9.4182   -0.8586   23.0619 C   0  0  0  0  0  0  0  0  0  0  0  0
   10.3218   -1.7886   22.5298 C   0  0  0  0  0  0  0  0  0  0  0  0
   11.6814   -1.6025   22.7033 C   0  0  0  0  0  0  0  0  0  0  0  0
   12.7897   -2.7559   22.0224 Cl  0  0  0  0  0  0  0  0  0  0  0  0
   12.1956   -0.5100   23.3984 C   0  0  0  0  0  0  0  0  0  0  0  0
   11.3127    0.3979   23.9413 C   0  0  0  0  0  0  0  0  0  0  0  0
    9.9385    0.2183   23.7948 C   0  0  0  0  0  0  0  0  0  0  0  0
    9.0429    1.2104   24.4693 C   0  0  0  0  0  0  0  0  0  0  0  0
    9.4836    2.2335   24.9767 O   0  0  0  0  0  0  0  0  0  0  0  0
    5.9728    6.6425   23.5407 C   0  0  0  0  0  0  0  0  0  0  0  0
    4.7548    7.7432   25.6987 H   0  0  0  0  0  0  0  0  0  0  0  0
    3.9947    8.4343   24.2114 H   0  0  0  0  0  0  0  0  0  0  0  0
    4.3926    9.4890   25.6017 H   0  0  0  0  0  0  0  0  0  0  0  0
    8.2807    9.1363   23.5892 H   0  0  0  0  0  0  0  0  0  0  0  0
    9.6391    7.3543   22.4543 H   0  0  0  0  0  0  0  0  0  0  0  0
    8.6590    5.0644   22.1769 H   0  0  0  0  0  0  0  0  0  0  0  0
    5.0419    4.3294   22.6134 H   0  0  0  0  0  0  0  0  0  0  0  0
    6.2894    4.1296   21.3761 H   0  0  0  0  0  0  0  0  0  0  0  0
    7.3391    2.5862   22.6999 H   0  0  0  0  0  0  0  0  0  0  0  0
    5.9884    1.2330   25.6339 H   0  0  0  0  0  0  0  0  0  0  0  0
    7.3764    2.2303   26.0600 H   0  0  0  0  0  0  0  0  0  0  0  0
    7.3746   -1.1197   24.8969 H   0  0  0  0  0  0  0  0  0  0  0  0
    6.1331   -0.3161   23.9109 H   0  0  0  0  0  0  0  0  0  0  0  0
    7.1474   -1.0214   18.4149 H   0  0  0  0  0  0  0  0  0  0  0  0
    4.3232    1.4412   16.6716 H   0  0  0  0  0  0  0  0  0  0  0  0
    2.7199    2.7306   18.0324 H   0  0  0  0  0  0  0  0  0  0  0  0
    1.7836    3.3107   20.2485 H   0  0  0  0  0  0  0  0  0  0  0  0
    2.7428    2.3185   22.3150 H   0  0  0  0  0  0  0  0  0  0  0  0
    4.6155    0.7432   22.1811 H   0  0  0  0  0  0  0  0  0  0  0  0
    5.9130   -2.6759   20.7369 H   0  0  0  0  0  0  0  0  0  0  0  0
    5.2124   -1.8353   22.1378 H   0  0  0  0  0  0  0  0  0  0  0  0
    8.0663   -2.7153   21.6537 H   0  0  0  0  0  0  0  0  0  0  0  0
    6.2606   -2.9711   24.1181 H   0  0  0  0  0  0  0  0  0  0  0  0
    7.9648   -3.4564   24.0882 H   0  0  0  0  0  0  0  0  0  0  0  0
    6.7883   -4.2745   23.0373 H   0  0  0  0  0  0  0  0  0  0  0  0
    9.9990   -2.6644   21.9774 H   0  0  0  0  0  0  0  0  0  0  0  0
   13.2661   -0.3831   23.5100 H   0  0  0  0  0  0  0  0  0  0  0  0
   11.6613    1.2636   24.4925 H   0  0  0  0  0  0  0  0  0  0  0  0
    4.9543    6.4176   23.8671 H   0  0  0  0  0  0  0  0  0  0  0  0
  1  2  1  0
  2  3  1  0
  3  4  2  0
  4  5  1  0
  5  6  2  0
  6  7  1  0
  7  8  1  0
  8  9  1  0
  9 10  1  0
 10 11  2  0
 10 12  1  0
 12 13  1  0
 13 14  1  0
 15 14  1  1
 15 16  1  0
 16 17  2  0
 16 18  1  0
 18 19  1  0
 19 20  2  0
 20 21  1  0
 21 22  2  0
 22 23  1  0
 23 24  2  0
 24 25  1  0
 25 26  2  0
 26 27  1  0
 27 28  2  0
 18 29  1  0
 29 30  1  0
 30 31  1  0
 15 32  1  0
 32 33  2  0
 33 34  1  0
 34 35  1  0
 34 36  2  0
 36 37  1  0
 37 38  2  0
 38 39  1  0
 39 40  2  0
  7 41  2  0
 41  3  1  0
 39 13  1  0
 30 15  1  0
 38 32  1  0
 28 19  1  0
 28 23  1  0
  1 42  1  0
  1 43  1  0
  1 44  1  0
  4 45  1  0
  5 46  1  0
  6 47  1  0
  8 48  1  0
  8 49  1  0
  9 50  1  0
 12 51  1  0
 12 52  1  0
 14 53  1  0
 14 54  1  0
 20 55  1  0
 22 56  1  0
 24 57  1  0
 25 58  1  0
 26 59  1  0
 27 60  1  0
 29 61  1  0
 29 62  1  0
 30 63  1  6
 31 64  1  0
 31 65  1  0
 31 66  1  0
 33 67  1  0
 36 68  1  0
 37 69  1  0
 41 70  1  0
M  END
>  <RMSD>  (150) 
0.1768617605177657

$$$$

     RDKit          3D

 27 31  0  0  0  0  0  0  0  0999 V2000
   -9.4291   -0.4490  -20.9916 O   0  0  0  0  0  0  0  0  0  0  0  0
   -8.7468   -1.3628  -21.3810 C   0  0  0  0  0  0  0  0  0  0  0  0
   -9.1376   -2.4504  -22.1143 N   0  0  0  0  0  0  0  0  0  0  0  0
   -8.0405   -3.1517  -22.7326 C   0  0  1  0  0  0  0  0  0  0  0  0
   -8.1058   -4.6935  -22.6965 C   0  0  0  0  0  0  0  0  0  0  0  0
   -8.2273   -4.7392  -24.2534 C   0  0  2  0  0  0  0  0  0  0  0  0
   -7.1816   -5.5468  -24.9583 C   0  0  0  0  0  0  0  0  0  0  0  0
   -5.8248   -5.3054  -24.7124 C   0  0  0  0  0  0  0  0  0  0  0  0
   -4.8367   -6.0462  -25.3494 C   0  0  0  0  0  0  0  0  0  0  0  0
   -5.1879   -7.0520  -26.2483 C   0  0  0  0  0  0  0  0  0  0  0  0
   -6.5280   -7.3116  -26.5038 C   0  0  0  0  0  0  0  0  0  0  0  0
   -7.5050   -6.5629  -25.8585 C   0  0  0  0  0  0  0  0  0  0  0  0
   -9.1750   -6.9425  -26.2140 Cl  0  0  0  0  0  0  0  0  0  0  0  0
   -8.0355   -3.1881  -24.2895 C   0  0  0  0  0  0  0  0  0  0  0  0
   -6.8429   -2.5182  -22.0450 C   0  0  0  0  0  0  0  0  0  0  0  0
   -5.6815   -2.8116  -22.2102 O   0  0  0  0  0  0  0  0  0  0  0  0
   -7.3437   -1.5144  -21.2039 N   0  0  0  0  0  0  0  0  0  0  0  0
   -6.5862   -0.8572  -20.1854 C   0  0  0  0  0  0  0  0  0  0  0  0
   -6.9102   -1.0603  -18.8662 C   0  0  0  0  0  0  0  0  0  0  0  0
   -6.2198   -0.5451  -17.8190 N   0  0  0  0  0  0  0  0  0  0  0  0
   -5.1806    0.2056  -18.0927 C   0  0  0  0  0  0  0  0  0  0  0  0
   -4.7475    0.5230  -19.4082 C   0  0  0  0  0  0  0  0  0  0  0  0
   -3.6175    1.3557  -19.6357 C   0  0  0  0  0  0  0  0  0  0  0  0
   -3.2274    1.6578  -20.9099 C   0  0  0  0  0  0  0  0  0  0  0  0
   -3.9561    1.1428  -22.0059 C   0  0  0  0  0  0  0  0  0  0  0  0
   -5.0498    0.3352  -21.8118 C   0  0  0  0  0  0  0  0  0  0  0  0
   -5.4705   -0.0119  -20.4974 C   0  0  0  0  0  0  0  0  0  0  0  0
  1  2  2  0
  2  3  1  0
  4  3  1  0
  4  5  1  1
  5  6  1  0
  6  7  1  6
  7  8  2  0
  8  9  1  0
  9 10  2  0
 10 11  1  0
 11 12  2  0
 12 13  1  0
  6 14  1  0
  4 15  1  0
 15 16  2  0
 15 17  1  0
 17 18  1  0
 18 19  2  0
 19 20  1  0
 20 21  2  0
 21 22  1  0
 22 23  2  0
 23 24  1  0
 24 25  2  0
 25 26  1  0
 26 27  2  0
 17  2  1  0
 27 18  1  0
 14  4  1  0
 27 22  1  0
 12  7  1  0
M  END
>  <cnnaffinities>  (151) 
[5.68884, 5.90886, 5.74847]

>  <score>  (151) 
5.68884

>  <index>  (151) 
74

>  <Smiles>  (151) 
O=C1N([C@]2(C([C@](c3c(c(c(c(c3Cl)[H])[H])[H])[H])(C2([H])[H])[H])([H])[H])C(=O)N1c1c(nc(c2c(c(c(c(c12)[H])[H])[H])[H])[H])[H])[H]

>  <h>  (151) 
<NA>

>  <Training>  (151) 
True

>  <Success>  (151) 
True

>  <enamine_searched>  (151) 
False

>  <enamine_id>  (151) 
nan

$$$$

     RDKit          3D

 61 65  0  0  0  0  0  0  0  0999 V2000
    7.0590   -3.2997   23.4835 C   0  0  0  0  0  0  0  0  0  0  0  0
    7.3388   -2.2857   22.3785 C   0  0  1  0  0  0  0  0  0  0  0  0
    6.1220   -1.9434   21.5055 C   0  0  0  0  0  0  0  0  0  0  0  0
    6.5284   -0.6845   20.9107 N   0  0  0  0  0  0  0  0  0  0  0  0
    5.8728   -0.0671   19.8167 C   0  0  0  0  0  0  0  0  0  0  0  0
    6.3035   -0.3470   18.5459 C   0  0  0  0  0  0  0  0  0  0  0  0
    5.7698    0.1834   17.4188 N   0  0  0  0  0  0  0  0  0  0  0  0
    4.7673    1.0187   17.5729 C   0  0  0  0  0  0  0  0  0  0  0  0
    4.2180    1.3891   18.8364 C   0  0  0  0  0  0  0  0  0  0  0  0
    3.1284    2.2948   18.9456 C   0  0  0  0  0  0  0  0  0  0  0  0
    2.6066    2.6148   20.1699 C   0  0  0  0  0  0  0  0  0  0  0  0
    3.1434    2.0432   21.3435 C   0  0  0  0  0  0  0  0  0  0  0  0
    4.2103    1.1779   21.2688 C   0  0  0  0  0  0  0  0  0  0  0  0
    4.7790    0.8307   20.0076 C   0  0  0  0  0  0  0  0  0  0  0  0
    7.4657   -0.0138   21.6495 C   0  0  0  0  0  0  0  0  0  0  0  0
    7.8015    1.1425   21.4446 O   0  0  0  0  0  0  0  0  0  0  0  0
    7.9011   -0.9099   22.8298 C   0  0  1  0  0  0  0  0  0  0  0  0
    7.1842   -0.3907   24.0997 C   0  0  0  0  0  0  0  0  0  0  0  0
    7.6757    0.9140   24.4989 N   0  0  0  0  0  0  0  0  0  0  0  0
    6.7846    1.8228   25.1990 C   0  0  0  0  0  0  0  0  0  0  0  0
    6.2071    3.0123   24.3894 C   0  0  0  0  0  0  0  0  0  0  0  0
    6.8202    3.2995   23.0466 N   0  0  0  0  0  0  0  0  0  0  0  0
    5.9430    4.2322   22.2795 C   0  0  0  0  0  0  0  0  0  0  0  0
    8.2092    3.8627   23.1489 C   0  0  0  0  0  0  0  0  0  0  0  0
    9.0191    1.1394   24.6064 C   0  0  0  0  0  0  0  0  0  0  0  0
    9.4808    2.0707   25.2545 O   0  0  0  0  0  0  0  0  0  0  0  0
    9.9123    0.1994   23.8523 C   0  0  0  0  0  0  0  0  0  0  0  0
   11.2873    0.3965   23.9781 C   0  0  0  0  0  0  0  0  0  0  0  0
   12.1806   -0.4934   23.4166 C   0  0  0  0  0  0  0  0  0  0  0  0
   11.6712   -1.5874   22.7196 C   0  0  0  0  0  0  0  0  0  0  0  0
   12.7851   -2.7396   22.0313 Cl  0  0  0  0  0  0  0  0  0  0  0  0
   10.3098   -1.7774   22.5500 C   0  0  0  0  0  0  0  0  0  0  0  0
    9.3958   -0.8555   23.0877 C   0  0  0  0  0  0  0  0  0  0  0  0
    6.2375   -2.9715   24.1306 H   0  0  0  0  0  0  0  0  0  0  0  0
    7.9362   -3.4526   24.1226 H   0  0  0  0  0  0  0  0  0  0  0  0
    6.7723   -4.2732   23.0731 H   0  0  0  0  0  0  0  0  0  0  0  0
    8.0875   -2.6963   21.6967 H   0  0  0  0  0  0  0  0  0  0  0  0
    5.2100   -1.8307   22.1173 H   0  0  0  0  0  0  0  0  0  0  0  0
    5.9113   -2.6871   20.7316 H   0  0  0  0  0  0  0  0  0  0  0  0
    7.1423   -1.0271   18.4061 H   0  0  0  0  0  0  0  0  0  0  0  0
    4.3209    1.4398   16.6708 H   0  0  0  0  0  0  0  0  0  0  0  0
    2.7243    2.7218   18.0339 H   0  0  0  0  0  0  0  0  0  0  0  0
    1.7795    3.3142   20.2498 H   0  0  0  0  0  0  0  0  0  0  0  0
    2.7285    2.3140   22.3118 H   0  0  0  0  0  0  0  0  0  0  0  0
    4.6137    0.7508   22.1820 H   0  0  0  0  0  0  0  0  0  0  0  0
    6.1113   -0.3004   23.9072 H   0  0  0  0  0  0  0  0  0  0  0  0
    7.3374   -1.1172   24.9116 H   0  0  0  0  0  0  0  0  0  0  0  0
    7.3380    2.1877   26.0681 H   0  0  0  0  0  0  0  0  0  0  0  0
    5.9504    1.2212   25.5824 H   0  0  0  0  0  0  0  0  0  0  0  0
    5.1338    2.8628   24.2380 H   0  0  0  0  0  0  0  0  0  0  0  0
    6.2965    3.9112   25.0120 H   0  0  0  0  0  0  0  0  0  0  0  0
    6.9017    2.4053   22.5389 H   0  0  0  0  0  0  0  0  0  0  0  0
    4.9185    3.8582   22.2484 H   0  0  0  0  0  0  0  0  0  0  0  0
    6.3068    4.3403   21.2523 H   0  0  0  0  0  0  0  0  0  0  0  0
    5.9274    5.2244   22.7557 H   0  0  0  0  0  0  0  0  0  0  0  0
    8.9214    3.1073   22.7913 H   0  0  0  0  0  0  0  0  0  0  0  0
    8.2859    4.7424   22.5009 H   0  0  0  0  0  0  0  0  0  0  0  0
    8.4348    4.1503   24.1834 H   0  0  0  0  0  0  0  0  0  0  0  0
   11.6289    1.2605   24.5361 H   0  0  0  0  0  0  0  0  0  0  0  0
   13.2547   -0.3661   23.5234 H   0  0  0  0  0  0  0  0  0  0  0  0
    9.9860   -2.6588   22.0085 H   0  0  0  0  0  0  0  0  0  0  0  0
  1  2  1  0
  2  3  1  0
  3  4  1  0
  4  5  1  0
  5  6  2  0
  6  7  1  0
  7  8  2  0
  8  9  1  0
  9 10  2  0
 10 11  1  0
 11 12  2  0
 12 13  1  0
 13 14  2  0
  4 15  1  0
 15 16  2  0
 15 17  1  0
 17 18  1  1
 18 19  1  0
 19 20  1  0
 20 21  1  0
 21 22  1  0
 22 23  1  0
 22 24  1  0
 19 25  1  0
 25 26  2  0
 25 27  1  0
 27 28  2  0
 28 29  1  0
 29 30  2  0
 30 31  1  0
 30 32  1  0
 32 33  2  0
 17  2  1  0
 33 27  1  0
 14  5  1  0
 33 17  1  0
 14  9  1  0
  1 34  1  0
  1 35  1  0
  1 36  1  0
  2 37  1  6
  3 38  1  0
  3 39  1  0
  6 40  1  0
  8 41  1  0
 10 42  1  0
 11 43  1  0
 12 44  1  0
 13 45  1  0
 18 46  1  0
 18 47  1  0
 20 48  1  0
 20 49  1  0
 21 50  1  0
 21 51  1  0
 22 52  1  0
 23 53  1  0
 23 54  1  0
 23 55  1  0
 24 56  1  0
 24 57  1  0
 24 58  1  0
 28 59  1  0
 29 60  1  0
 32 61  1  0
M  CHG  1  22   1
M  END
>  <RMSD>  (152) 
0.1773694551525371

$$$$

     RDKit          3D

 57 60  0  0  0  0  0  0  0  0999 V2000
    5.9744   -5.2955   26.7573 C   0  0  0  0  0  0  0  0  0  0  0  0
    6.2692   -5.3110   25.2436 C   0  0  0  0  0  0  0  0  0  0  0  0
    7.3281   -6.3930   24.9524 C   0  0  0  0  0  0  0  0  0  0  0  0
    5.0330   -5.6653   24.5109 C   0  0  0  0  0  0  0  0  0  0  0  0
    4.0766   -5.9094   23.9024 N   0  0  0  0  0  0  0  0  0  0  0  0
    6.6844   -3.9266   24.7150 C   0  0  0  0  0  0  0  0  0  0  0  0
    6.0737   -2.7620   25.1925 C   0  0  0  0  0  0  0  0  0  0  0  0
    6.3999   -1.5151   24.6716 C   0  0  0  0  0  0  0  0  0  0  0  0
    7.3099   -1.4125   23.6192 C   0  0  0  0  0  0  0  0  0  0  0  0
    7.6107   -0.1352   23.0620 N   0  0  0  0  0  0  0  0  0  0  0  0
    8.4438    0.7850   23.8247 C   0  0  0  0  0  0  0  0  0  0  0  0
    9.9396    0.7010   23.5271 C   0  0  0  0  0  0  0  0  0  0  0  0
   10.7572    1.8032   23.7881 C   0  0  0  0  0  0  0  0  0  0  0  0
   12.1217    1.7516   23.5108 C   0  0  0  0  0  0  0  0  0  0  0  0
   12.6911    0.6067   22.9601 C   0  0  0  0  0  0  0  0  0  0  0  0
   11.8775   -0.4940   22.7276 C   0  0  0  0  0  0  0  0  0  0  0  0
   12.5555   -1.9479   22.0386 Cl  0  0  0  0  0  0  0  0  0  0  0  0
   10.5217   -0.4648   23.0288 C   0  0  0  0  0  0  0  0  0  0  0  0
    7.3225    0.1870   21.7513 C   0  0  0  0  0  0  0  0  0  0  0  0
    7.7563    1.1879   21.2129 O   0  0  0  0  0  0  0  0  0  0  0  0
    6.4055   -0.7999   21.0195 C   0  0  0  0  0  0  0  0  0  0  0  0
    5.7548   -0.1866   19.8301 C   0  0  0  0  0  0  0  0  0  0  0  0
    6.2321   -0.4294   18.5766 C   0  0  0  0  0  0  0  0  0  0  0  0
    5.7582    0.1500   17.4418 N   0  0  0  0  0  0  0  0  0  0  0  0
    4.7729    1.0133   17.5775 C   0  0  0  0  0  0  0  0  0  0  0  0
    4.1871    1.3688   18.8240 C   0  0  0  0  0  0  0  0  0  0  0  0
    3.1413    2.3245   18.9393 C   0  0  0  0  0  0  0  0  0  0  0  0
    2.6317    2.6304   20.1732 C   0  0  0  0  0  0  0  0  0  0  0  0
    3.1341    2.0071   21.3391 C   0  0  0  0  0  0  0  0  0  0  0  0
    4.1411    1.0837   21.2491 C   0  0  0  0  0  0  0  0  0  0  0  0
    4.6943    0.7476   19.9875 C   0  0  0  0  0  0  0  0  0  0  0  0
    7.8794   -2.5777   23.1008 C   0  0  0  0  0  0  0  0  0  0  0  0
    7.6107   -3.8074   23.6805 C   0  0  0  0  0  0  0  0  0  0  0  0
    5.7945   -6.3140   27.1201 H   0  0  0  0  0  0  0  0  0  0  0  0
    6.8379   -4.8855   27.2882 H   0  0  0  0  0  0  0  0  0  0  0  0
    5.0987   -4.6872   27.0010 H   0  0  0  0  0  0  0  0  0  0  0  0
    7.4559   -6.5568   23.8790 H   0  0  0  0  0  0  0  0  0  0  0  0
    7.0328   -7.3446   25.4045 H   0  0  0  0  0  0  0  0  0  0  0  0
    8.2904   -6.0913   25.3762 H   0  0  0  0  0  0  0  0  0  0  0  0
    5.3383   -2.8013   25.9935 H   0  0  0  0  0  0  0  0  0  0  0  0
    5.9252   -0.6126   25.0560 H   0  0  0  0  0  0  0  0  0  0  0  0
    8.0965    1.8030   23.6198 H   0  0  0  0  0  0  0  0  0  0  0  0
    8.2719    0.5749   24.8894 H   0  0  0  0  0  0  0  0  0  0  0  0
   10.3238    2.7083   24.2162 H   0  0  0  0  0  0  0  0  0  0  0  0
   12.7495    2.6139   23.7273 H   0  0  0  0  0  0  0  0  0  0  0  0
   13.7494    0.5601   22.7218 H   0  0  0  0  0  0  0  0  0  0  0  0
    9.9413   -1.3697   22.8884 H   0  0  0  0  0  0  0  0  0  0  0  0
    7.0141   -1.6561   20.7077 H   0  0  0  0  0  0  0  0  0  0  0  0
    5.6702   -1.1994   21.7243 H   0  0  0  0  0  0  0  0  0  0  0  0
    7.0578   -1.1355   18.4500 H   0  0  0  0  0  0  0  0  0  0  0  0
    4.4001    1.4859   16.6694 H   0  0  0  0  0  0  0  0  0  0  0  0
    2.7577    2.8208   18.0488 H   0  0  0  0  0  0  0  0  0  0  0  0
    1.8416    3.3681   20.2673 H   0  0  0  0  0  0  0  0  0  0  0  0
    2.7304    2.2694   22.3144 H   0  0  0  0  0  0  0  0  0  0  0  0
    4.5486    0.6111   22.1399 H   0  0  0  0  0  0  0  0  0  0  0  0
    8.5275   -2.5538   22.2266 H   0  0  0  0  0  0  0  0  0  0  0  0
    8.1772   -4.6642   23.3285 H   0  0  0  0  0  0  0  0  0  0  0  0
  1  2  1  0
  2  3  1  0
  2  4  1  0
  4  5  3  0
  2  6  1  0
  6  7  2  0
  7  8  1  0
  8  9  2  0
  9 10  1  0
 10 11  1  0
 11 12  1  0
 12 13  2  0
 13 14  1  0
 14 15  2  0
 15 16  1  0
 16 17  1  0
 16 18  2  0
 10 19  1  0
 19 20  2  0
 19 21  1  0
 21 22  1  0
 22 23  2  0
 23 24  1  0
 24 25  2  0
 25 26  1  0
 26 27  2  0
 27 28  1  0
 28 29  2  0
 29 30  1  0
 30 31  2  0
  9 32  1  0
 32 33  2  0
 33  6  1  0
 18 12  1  0
 31 22  1  0
 31 26  1  0
  1 34  1  0
  1 35  1  0
  1 36  1  0
  3 37  1  0
  3 38  1  0
  3 39  1  0
  7 40  1  0
  8 41  1  0
 11 42  1  0
 11 43  1  0
 13 44  1  0
 14 45  1  0
 15 46  1  0
 18 47  1  0
 21 48  1  0
 21 49  1  0
 23 50  1  0
 25 51  1  0
 27 52  1  0
 28 53  1  0
 29 54  1  0
 30 55  1  0
 32 56  1  0
 33 57  1  0
M  END
>  <RMSD>  (153) 
0.04593427969633772

$$$$

     RDKit          3D

 66 71  0  0  0  0  0  0  0  0999 V2000
   -6.7603    2.6549  -23.2097 C   0  0  0  0  0  0  0  0  0  0  0  0
   -7.3259    1.4823  -23.8506 N   0  0  0  0  0  0  0  0  0  0  0  0
   -6.8390    1.0556  -25.0352 C   0  0  0  0  0  0  0  0  0  0  0  0
   -6.0174    1.6843  -25.6878 O   0  0  0  0  0  0  0  0  0  0  0  0
   -7.3454   -0.2951  -25.5708 C   0  0  0  0  0  0  0  0  0  0  0  0
   -8.1594   -1.1025  -24.6890 N   0  0  0  0  0  0  0  0  0  0  0  0
   -7.5808   -2.3037  -24.1181 C   0  0  0  0  0  0  0  0  0  0  0  0
   -8.2291   -2.6557  -22.7612 C   0  0  2  0  0  0  0  0  0  0  0  0
   -7.8706   -1.5554  -21.7185 C   0  0  0  0  0  0  0  0  0  0  0  0
   -8.3900   -0.4648  -21.5785 O   0  0  0  0  0  0  0  0  0  0  0  0
   -6.8124   -2.0049  -20.9615 N   0  0  0  0  0  0  0  0  0  0  0  0
   -6.1787   -1.1637  -20.0026 C   0  0  0  0  0  0  0  0  0  0  0  0
   -6.5501   -1.2343  -18.6854 C   0  0  0  0  0  0  0  0  0  0  0  0
   -6.0107   -0.4921  -17.6821 N   0  0  0  0  0  0  0  0  0  0  0  0
   -5.0681    0.3609  -18.0057 C   0  0  0  0  0  0  0  0  0  0  0  0
   -4.5786    0.5450  -19.3328 C   0  0  0  0  0  0  0  0  0  0  0  0
   -3.5538    1.4836  -19.6336 C   0  0  0  0  0  0  0  0  0  0  0  0
   -3.0890    1.6193  -20.9150 C   0  0  0  0  0  0  0  0  0  0  0  0
   -3.6239    0.8198  -21.9506 C   0  0  0  0  0  0  0  0  0  0  0  0
   -4.6237   -0.0858  -21.6835 C   0  0  0  0  0  0  0  0  0  0  0  0
   -5.1409   -0.2423  -20.3677 C   0  0  0  0  0  0  0  0  0  0  0  0
   -6.3475   -3.3261  -21.3420 C   0  0  0  0  0  0  0  0  0  0  0  0
   -7.5504   -3.9025  -22.1190 C   0  0  2  0  0  0  0  0  0  0  0  0
   -7.1208   -5.0551  -23.0416 C   0  0  0  0  0  0  0  0  0  0  0  0
   -8.2120   -5.6587  -23.7803 N   0  0  0  0  0  0  0  0  0  0  0  0
   -8.0223   -6.6776  -24.6755 C   0  0  0  0  0  0  0  0  0  0  0  0
   -6.7497   -7.2196  -24.9901 C   0  0  0  0  0  0  0  0  0  0  0  0
   -6.5919   -8.1421  -25.9277 N   0  0  0  0  0  0  0  0  0  0  0  0
   -7.6890   -8.5656  -26.5644 C   0  0  0  0  0  0  0  0  0  0  0  0
   -8.9405   -8.0920  -26.2100 C   0  0  0  0  0  0  0  0  0  0  0  0
   -9.1135   -7.1589  -25.2717 N   0  0  0  0  0  0  0  0  0  0  0  0
   -9.7288   -2.7222  -22.9666 C   0  0  0  0  0  0  0  0  0  0  0  0
  -10.5543   -3.5904  -22.2424 C   0  0  0  0  0  0  0  0  0  0  0  0
  -11.9325   -3.5101  -22.3691 C   0  0  0  0  0  0  0  0  0  0  0  0
  -12.9483   -4.5700  -21.4293 Cl  0  0  0  0  0  0  0  0  0  0  0  0
  -12.5299   -2.5869  -23.2275 C   0  0  0  0  0  0  0  0  0  0  0  0
  -11.7187   -1.7406  -23.9584 C   0  0  0  0  0  0  0  0  0  0  0  0
  -10.3329   -1.8064  -23.8402 C   0  0  0  0  0  0  0  0  0  0  0  0
   -9.5061   -0.8591  -24.6628 C   0  0  0  0  0  0  0  0  0  0  0  0
   -9.9905    0.0953  -25.2594 O   0  0  0  0  0  0  0  0  0  0  0  0
   -6.8610    3.5430  -23.8437 H   0  0  0  0  0  0  0  0  0  0  0  0
   -7.2973    2.8079  -22.2702 H   0  0  0  0  0  0  0  0  0  0  0  0
   -5.6938    2.5047  -22.9941 H   0  0  0  0  0  0  0  0  0  0  0  0
   -8.0380    0.9564  -23.3617 H   0  0  0  0  0  0  0  0  0  0  0  0
   -7.9012   -0.0876  -26.4917 H   0  0  0  0  0  0  0  0  0  0  0  0
   -6.4445   -0.8557  -25.8359 H   0  0  0  0  0  0  0  0  0  0  0  0
   -6.5102   -2.1237  -23.9719 H   0  0  0  0  0  0  0  0  0  0  0  0
   -7.7077   -3.1569  -24.7980 H   0  0  0  0  0  0  0  0  0  0  0  0
   -7.3285   -1.9330  -18.3869 H   0  0  0  0  0  0  0  0  0  0  0  0
   -4.6528    0.9598  -17.1933 H   0  0  0  0  0  0  0  0  0  0  0  0
   -3.1659    2.0948  -18.8224 H   0  0  0  0  0  0  0  0  0  0  0  0
   -2.3243    2.3555  -21.1516 H   0  0  0  0  0  0  0  0  0  0  0  0
   -3.2712    0.9508  -22.9723 H   0  0  0  0  0  0  0  0  0  0  0  0
   -5.0311   -0.6956  -22.4833 H   0  0  0  0  0  0  0  0  0  0  0  0
   -5.4511   -3.2692  -21.9827 H   0  0  0  0  0  0  0  0  0  0  0  0
   -6.0683   -3.8964  -20.4515 H   0  0  0  0  0  0  0  0  0  0  0  0
   -8.2690   -4.2844  -21.3866 H   0  0  0  0  0  0  0  0  0  0  0  0
   -6.6343   -5.8432  -22.4409 H   0  0  0  0  0  0  0  0  0  0  0  0
   -6.3551   -4.6956  -23.7574 H   0  0  0  0  0  0  0  0  0  0  0  0
   -9.1847   -5.3821  -23.6963 H   0  0  0  0  0  0  0  0  0  0  0  0
   -5.8491   -6.8846  -24.4795 H   0  0  0  0  0  0  0  0  0  0  0  0
   -7.5475   -9.2779  -27.3732 H   0  0  0  0  0  0  0  0  0  0  0  0
   -9.8349   -8.4575  -26.7184 H   0  0  0  0  0  0  0  0  0  0  0  0
  -10.1339   -4.3216  -21.5620 H   0  0  0  0  0  0  0  0  0  0  0  0
  -13.6088   -2.5381  -23.3121 H   0  0  0  0  0  0  0  0  0  0  0  0
  -12.1139   -0.9926  -24.6354 H   0  0  0  0  0  0  0  0  0  0  0  0
  1  2  1  0
  2  3  1  0
  3  4  2  0
  3  5  1  0
  5  6  1  0
  6  7  1  0
  8  7  1  6
  8  9  1  0
  9 10  2  0
  9 11  1  0
 11 12  1  0
 12 13  2  0
 13 14  1  0
 14 15  2  0
 15 16  1  0
 16 17  2  0
 17 18  1  0
 18 19  2  0
 19 20  1  0
 20 21  2  0
 11 22  1  0
 22 23  1  0
 23 24  1  0
 24 25  1  0
 25 26  1  0
 26 27  2  0
 27 28  1  0
 28 29  2  0
 29 30  1  0
 30 31  2  0
  8 32  1  0
 32 33  2  0
 33 34  1  0
 34 35  1  0
 34 36  2  0
 36 37  1  0
 37 38  2  0
 38 39  1  0
 39 40  2  0
 39  6  1  0
 23  8  1  0
 31 26  1  0
 38 32  1  0
 21 12  1  0
 21 16  1  0
  1 41  1  0
  1 42  1  0
  1 43  1  0
  2 44  1  0
  5 45  1  0
  5 46  1  0
  7 47  1  0
  7 48  1  0
 13 49  1  0
 15 50  1  0
 17 51  1  0
 18 52  1  0
 19 53  1  0
 20 54  1  0
 22 55  1  0
 22 56  1  0
 23 57  1  1
 24 58  1  0
 24 59  1  0
 25 60  1  0
 27 61  1  0
 29 62  1  0
 30 63  1  0
 33 64  1  0
 36 65  1  0
 37 66  1  0
M  END
>  <RMSD>  (154) 
0.0624668385126598

$$$$

     RDKit          3D

 34 35  0  0  0  0  0  0  0  0999 V2000
    9.5415   -0.6798   23.1281 C   0  0  0  0  0  0  0  0  0  0  0  0
    9.4948    0.5346   22.7102 O   0  0  0  0  0  0  0  0  0  0  0  0
    8.5895   -1.6006   22.7333 N   0  0  0  0  0  0  0  0  0  0  0  0
    8.5943   -3.0274   23.1019 C   0  0  0  0  0  0  0  0  0  0  0  0
    7.2224   -3.2300   23.5984 C   0  0  1  0  0  0  0  0  0  0  0  0
    6.4187   -2.0612   23.0268 C   0  0  0  0  0  0  0  0  0  0  0  0
    7.3970   -1.5455   21.9616 C   0  0  1  0  0  0  0  0  0  0  0  0
    6.5713   -4.5427   23.2000 C   0  0  0  0  0  0  0  0  0  0  0  0
    6.3621   -5.2889   24.3189 F   0  0  0  0  0  0  0  0  0  0  0  0
    7.3874   -5.1385   22.2636 F   0  0  0  0  0  0  0  0  0  0  0  0
    5.3908   -4.1666   22.5645 F   0  0  0  0  0  0  0  0  0  0  0  0
    6.9816   -0.3404   21.3211 C   0  0  0  0  0  0  0  0  0  0  0  0
    7.0096   -0.1277   20.1095 O   0  0  0  0  0  0  0  0  0  0  0  0
    6.4685    0.7576   22.1048 N   0  0  0  0  0  0  0  0  0  0  0  0
    6.0453    1.9875   21.4094 C   0  0  2  0  0  0  0  0  0  0  0  0
    6.7802    3.1728   22.0084 C   0  0  0  0  0  0  0  0  0  0  0  0
    8.2101    3.0678   21.9646 N   0  0  0  0  0  0  0  0  0  0  0  0
    4.5712    2.1119   21.4228 C   0  0  0  0  0  0  0  0  0  0  0  0
    4.0533    2.9888   20.3040 C   0  0  2  0  0  0  0  0  0  0  0  0
    2.7803    3.7097   20.7053 C   0  0  0  0  0  0  0  0  0  0  0  0
    1.9269    3.7749   19.4758 C   0  0  0  0  0  0  0  0  0  0  0  0
    2.2706    2.5816   18.7649 N   0  0  0  0  0  0  0  0  0  0  0  0
    3.5717    2.1649   19.1407 C   0  0  0  0  0  0  0  0  0  0  0  0
    4.1796    1.2442   18.5515 O   0  0  0  0  0  0  0  0  0  0  0  0
   10.7013   -0.8916   24.0272 C   0  0  1  0  0  0  0  0  0  0  0  0
    9.8539   -2.3962   25.9220 C   0  0  0  0  0  0  0  0  0  0  0  0
    9.0686   -1.5222   26.4043 O   0  0  0  0  0  0  0  0  0  0  0  0
   10.6316   -2.1255   24.7931 N   0  0  0  0  0  0  0  0  0  0  0  0
   10.9076   -4.5563   26.4986 C   0  0  0  0  0  0  0  0  0  0  0  0
    9.8651   -3.6086   26.5959 O   0  0  0  0  0  0  0  0  0  0  0  0
   12.0136   -0.8894   23.2325 C   0  0  0  0  0  0  0  0  0  0  0  0
   12.9861   -1.7575   23.9907 C   0  0  0  0  0  0  0  0  0  0  0  0
   12.5941    0.4633   23.0258 C   0  0  0  0  0  0  0  0  0  0  0  0
   11.7736   -1.4722   21.8428 C   0  0  0  0  0  0  0  0  0  0  0  0
 29 30  1  0
 30 26  1  0
 26 27  2  0
 26 28  1  0
 25 28  1  6
 25  1  1  0
  1  2  2  0
  1  3  1  0
  3  4  1  0
  4  5  1  0
  5  8  1  6
  8  9  1  0
  8 10  1  0
  8 11  1  0
  5  6  1  0
  6  7  1  0
  7 12  1  1
 12 13  2  0
 12 14  1  0
 14 15  1  0
 15 16  1  1
 16 17  1  0
 15 18  1  0
 19 18  1  1
 19 20  1  0
 20 21  1  0
 21 22  1  0
 22 23  1  0
 23 24  2  0
 25 31  1  0
 31 32  1  0
 31 33  1  0
 31 34  1  0
  7  3  1  0
 23 19  1  0
M  CHG  1  17   1
M  END
>  <minimizedAffinity>  (155) 
-6.69319

>  <CNNscore>  (155) 
0.4342820942

>  <CNNaffinity>  (155) 
6.5623116493

>  <CNN_VS>  (155) 
2.8498945236

>  <CNNaffinity_variance>  (155) 
0.1835929900

$$$$

     RDKit          3D

 66 71  0  0  0  0  0  0  0  0999 V2000
   -7.3278   -5.0271  -23.0341 C   0  0  0  0  0  0  0  0  0  0  0  0
   -7.5935   -3.8778  -22.0714 C   0  0  1  0  0  0  0  0  0  0  0  0
   -6.3404   -3.3118  -21.3837 C   0  0  0  0  0  0  0  0  0  0  0  0
   -6.8033   -2.0021  -20.9461 N   0  0  0  0  0  0  0  0  0  0  0  0
   -6.1568   -1.1778  -19.9904 C   0  0  0  0  0  0  0  0  0  0  0  0
   -6.5544   -1.2332  -18.6791 C   0  0  0  0  0  0  0  0  0  0  0  0
   -6.0204   -0.4844  -17.6800 N   0  0  0  0  0  0  0  0  0  0  0  0
   -5.0688    0.3563  -18.0076 C   0  0  0  0  0  0  0  0  0  0  0  0
   -4.5634    0.5226  -19.3298 C   0  0  0  0  0  0  0  0  0  0  0  0
   -3.5541    1.4753  -19.6332 C   0  0  0  0  0  0  0  0  0  0  0  0
   -3.1010    1.6223  -20.9135 C   0  0  0  0  0  0  0  0  0  0  0  0
   -3.6357    0.8312  -21.9531 C   0  0  0  0  0  0  0  0  0  0  0  0
   -4.6221   -0.0904  -21.6903 C   0  0  0  0  0  0  0  0  0  0  0  0
   -5.1141   -0.2688  -20.3663 C   0  0  0  0  0  0  0  0  0  0  0  0
   -7.9934   -1.6192  -21.5281 C   0  0  0  0  0  0  0  0  0  0  0  0
   -8.6565   -0.6573  -21.1858 O   0  0  0  0  0  0  0  0  0  0  0  0
   -8.3000   -2.6172  -22.6665 C   0  0  1  0  0  0  0  0  0  0  0  0
   -7.6006   -2.1872  -23.9898 C   0  0  0  0  0  0  0  0  0  0  0  0
   -8.2977   -1.1239  -24.6916 N   0  0  0  0  0  0  0  0  0  0  0  0
   -7.5826    0.0902  -25.0707 C   0  0  0  0  0  0  0  0  0  0  0  0
   -7.5068    1.1086  -23.9258 C   0  0  0  0  0  0  0  0  0  0  0  0
   -8.5767    2.1536  -24.0095 N   0  0  0  0  0  0  0  0  0  0  0  0
   -8.2393    3.3956  -23.2317 C   0  0  0  0  0  0  0  0  0  0  0  0
   -9.2890    4.4738  -23.4660 C   0  0  0  0  0  0  0  0  0  0  0  0
  -10.5951    4.0583  -23.1238 O   0  0  0  0  0  0  0  0  0  0  0  0
  -10.9613    2.8241  -23.7038 C   0  0  0  0  0  0  0  0  0  0  0  0
   -9.9372    1.7067  -23.5223 C   0  0  0  0  0  0  0  0  0  0  0  0
   -9.6391   -1.2176  -24.9329 C   0  0  0  0  0  0  0  0  0  0  0  0
  -10.2204   -0.5609  -25.7881 O   0  0  0  0  0  0  0  0  0  0  0  0
  -10.4114   -2.1049  -23.9917 C   0  0  0  0  0  0  0  0  0  0  0  0
  -11.7938   -2.1898  -24.1708 C   0  0  0  0  0  0  0  0  0  0  0  0
  -12.5885   -2.8469  -23.2496 C   0  0  0  0  0  0  0  0  0  0  0  0
  -11.9715   -3.4297  -22.1401 C   0  0  0  0  0  0  0  0  0  0  0  0
  -12.9567   -4.2123  -20.9321 Cl  0  0  0  0  0  0  0  0  0  0  0  0
  -10.6014   -3.3730  -21.9569 C   0  0  0  0  0  0  0  0  0  0  0  0
   -9.7877   -2.7278  -22.9007 C   0  0  0  0  0  0  0  0  0  0  0  0
   -6.9491   -5.9028  -22.4953 H   0  0  0  0  0  0  0  0  0  0  0  0
   -8.2485   -5.3128  -23.5557 H   0  0  0  0  0  0  0  0  0  0  0  0
   -6.5807   -4.7542  -23.7903 H   0  0  0  0  0  0  0  0  0  0  0  0
   -8.2222   -4.2526  -21.2540 H   0  0  0  0  0  0  0  0  0  0  0  0
   -5.4921   -3.2435  -22.0846 H   0  0  0  0  0  0  0  0  0  0  0  0
   -6.0149   -3.9276  -20.5381 H   0  0  0  0  0  0  0  0  0  0  0  0
   -7.3531   -1.9134  -18.3910 H   0  0  0  0  0  0  0  0  0  0  0  0
   -4.6541    0.9723  -17.2072 H   0  0  0  0  0  0  0  0  0  0  0  0
   -3.1642    2.0909  -18.8264 H   0  0  0  0  0  0  0  0  0  0  0  0
   -2.3322    2.3557  -21.1441 H   0  0  0  0  0  0  0  0  0  0  0  0
   -3.2720    0.9613  -22.9671 H   0  0  0  0  0  0  0  0  0  0  0  0
   -5.0341   -0.6798  -22.5052 H   0  0  0  0  0  0  0  0  0  0  0  0
   -7.5332   -3.0647  -24.6478 H   0  0  0  0  0  0  0  0  0  0  0  0
   -6.5833   -1.8391  -23.7863 H   0  0  0  0  0  0  0  0  0  0  0  0
   -6.5828   -0.1855  -25.4220 H   0  0  0  0  0  0  0  0  0  0  0  0
   -8.1057    0.5319  -25.9177 H   0  0  0  0  0  0  0  0  0  0  0  0
   -7.5897    0.5912  -22.9665 H   0  0  0  0  0  0  0  0  0  0  0  0
   -6.5511    1.6392  -23.9285 H   0  0  0  0  0  0  0  0  0  0  0  0
   -8.6705    2.4205  -25.0131 H   0  0  0  0  0  0  0  0  0  0  0  0
   -7.2556    3.7640  -23.5269 H   0  0  0  0  0  0  0  0  0  0  0  0
   -8.1873    3.1324  -22.1697 H   0  0  0  0  0  0  0  0  0  0  0  0
   -9.2359    4.7915  -24.5247 H   0  0  0  0  0  0  0  0  0  0  0  0
   -9.0664    5.3246  -22.8164 H   0  0  0  0  0  0  0  0  0  0  0  0
  -11.1704    2.9350  -24.7838 H   0  0  0  0  0  0  0  0  0  0  0  0
  -11.8945    2.5223  -23.2214 H   0  0  0  0  0  0  0  0  0  0  0  0
  -10.2767    0.8577  -24.1018 H   0  0  0  0  0  0  0  0  0  0  0  0
   -9.8540    1.3767  -22.4815 H   0  0  0  0  0  0  0  0  0  0  0  0
  -12.2316   -1.7085  -25.0401 H   0  0  0  0  0  0  0  0  0  0  0  0
  -13.6673   -2.8995  -23.3740 H   0  0  0  0  0  0  0  0  0  0  0  0
  -10.1750   -3.8281  -21.0675 H   0  0  0  0  0  0  0  0  0  0  0  0
  1  2  1  0
  2  3  1  0
  3  4  1  0
  4  5  1  0
  5  6  2  0
  6  7  1  0
  7  8  2  0
  8  9  1  0
  9 10  2  0
 10 11  1  0
 11 12  2  0
 12 13  1  0
 13 14  2  0
  4 15  1  0
 15 16  2  0
 15 17  1  0
 17 18  1  6
 18 19  1  0
 19 20  1  0
 20 21  1  0
 21 22  1  0
 22 23  1  0
 23 24  1  0
 24 25  1  0
 25 26  1  0
 26 27  1  0
 19 28  1  0
 28 29  2  0
 28 30  1  0
 30 31  2  0
 31 32  1  0
 32 33  2  0
 33 34  1  0
 33 35  1  0
 35 36  2  0
 17  2  1  0
 27 22  1  0
 36 30  1  0
 14  5  1  0
 36 17  1  0
 14  9  1  0
  1 37  1  0
  1 38  1  0
  1 39  1  0
  2 40  1  1
  3 41  1  0
  3 42  1  0
  6 43  1  0
  8 44  1  0
 10 45  1  0
 11 46  1  0
 12 47  1  0
 13 48  1  0
 18 49  1  0
 18 50  1  0
 20 51  1  0
 20 52  1  0
 21 53  1  0
 21 54  1  0
 22 55  1  0
 23 56  1  0
 23 57  1  0
 24 58  1  0
 24 59  1  0
 26 60  1  0
 26 61  1  0
 27 62  1  0
 27 63  1  0
 31 64  1  0
 32 65  1  0
 35 66  1  0
M  CHG  1  22   1
M  END
>  <RMSD>  (156) 
0.06762254224179051

$$$$

     RDKit          3D

 55 60  0  0  0  0  0  0  0  0999 V2000
   -7.2318   -5.0323  -23.0321 C   0  0  0  0  0  0  0  0  0  0  0  0
   -7.5580   -3.8758  -22.0996 C   0  0  1  0  0  0  0  0  0  0  0  0
   -6.3510   -3.2972  -21.3533 C   0  0  0  0  0  0  0  0  0  0  0  0
   -6.8138   -1.9758  -20.9717 N   0  0  0  0  0  0  0  0  0  0  0  0
   -6.1776   -1.1527  -20.0068 C   0  0  0  0  0  0  0  0  0  0  0  0
   -6.5448   -1.2445  -18.6882 C   0  0  0  0  0  0  0  0  0  0  0  0
   -6.0136   -0.5035  -17.6839 N   0  0  0  0  0  0  0  0  0  0  0  0
   -5.0734    0.3597  -17.9994 C   0  0  0  0  0  0  0  0  0  0  0  0
   -4.5722    0.5390  -19.3220 C   0  0  0  0  0  0  0  0  0  0  0  0
   -3.5558    1.4892  -19.6294 C   0  0  0  0  0  0  0  0  0  0  0  0
   -3.1035    1.6267  -20.9146 C   0  0  0  0  0  0  0  0  0  0  0  0
   -3.6302    0.8189  -21.9497 C   0  0  0  0  0  0  0  0  0  0  0  0
   -4.6239   -0.0899  -21.6846 C   0  0  0  0  0  0  0  0  0  0  0  0
   -5.1248   -0.2482  -20.3625 C   0  0  0  0  0  0  0  0  0  0  0  0
   -7.8815   -1.5307  -21.7229 C   0  0  0  0  0  0  0  0  0  0  0  0
   -8.4107   -0.4502  -21.5833 O   0  0  0  0  0  0  0  0  0  0  0  0
   -8.2330   -2.6376  -22.7527 C   0  0  1  0  0  0  0  0  0  0  0  0
   -7.5897   -2.2868  -24.1211 C   0  0  0  0  0  0  0  0  0  0  0  0
   -8.1619   -1.0901  -24.7120 N   0  0  0  0  0  0  0  0  0  0  0  0
   -7.3164   -0.2857  -25.5729 C   0  0  0  0  0  0  0  0  0  0  0  0
   -6.7298    0.8990  -24.8813 C   0  0  0  0  0  0  0  0  0  0  0  0
   -7.3454    1.6824  -23.9720 C   0  0  0  0  0  0  0  0  0  0  0  0
   -6.4830    2.6868  -23.6419 O   0  0  0  0  0  0  0  0  0  0  0  0
   -5.3810    2.4375  -24.3738 C   0  0  0  0  0  0  0  0  0  0  0  0
   -5.4519    1.3852  -25.1210 N   0  0  0  0  0  0  0  0  0  0  0  0
   -9.5003   -0.8183  -24.6527 C   0  0  0  0  0  0  0  0  0  0  0  0
   -9.9944    0.1430  -25.2285 O   0  0  0  0  0  0  0  0  0  0  0  0
  -10.3293   -1.7836  -23.8449 C   0  0  0  0  0  0  0  0  0  0  0  0
  -11.7200   -1.7250  -23.9717 C   0  0  0  0  0  0  0  0  0  0  0  0
  -12.5327   -2.5796  -23.2528 C   0  0  0  0  0  0  0  0  0  0  0  0
  -11.9206   -3.5021  -22.4123 C   0  0  0  0  0  0  0  0  0  0  0  0
  -12.6908   -4.3361  -21.6952 F   0  0  0  0  0  0  0  0  0  0  0  0
  -10.5510   -3.5891  -22.2614 C   0  0  0  0  0  0  0  0  0  0  0  0
   -9.7290   -2.7120  -22.9760 C   0  0  0  0  0  0  0  0  0  0  0  0
   -6.4527   -4.7567  -23.7465 H   0  0  0  0  0  0  0  0  0  0  0  0
   -6.8751   -5.9046  -22.4781 H   0  0  0  0  0  0  0  0  0  0  0  0
   -8.1041   -5.3427  -23.6157 H   0  0  0  0  0  0  0  0  0  0  0  0
   -8.2313   -4.2493  -21.3239 H   0  0  0  0  0  0  0  0  0  0  0  0
   -6.0905   -3.8829  -20.4697 H   0  0  0  0  0  0  0  0  0  0  0  0
   -5.4662   -3.2760  -22.0127 H   0  0  0  0  0  0  0  0  0  0  0  0
   -7.3283   -1.9388  -18.3922 H   0  0  0  0  0  0  0  0  0  0  0  0
   -4.6528    0.9649  -17.1929 H   0  0  0  0  0  0  0  0  0  0  0  0
   -3.1526    2.1110  -18.8324 H   0  0  0  0  0  0  0  0  0  0  0  0
   -2.3319    2.3557  -21.1516 H   0  0  0  0  0  0  0  0  0  0  0  0
   -3.2651    0.9285  -22.9681 H   0  0  0  0  0  0  0  0  0  0  0  0
   -5.0394   -0.7024  -22.4804 H   0  0  0  0  0  0  0  0  0  0  0  0
   -7.7249   -3.1233  -24.8204 H   0  0  0  0  0  0  0  0  0  0  0  0
   -6.5151   -2.1206  -23.9916 H   0  0  0  0  0  0  0  0  0  0  0  0
   -7.9167    0.0468  -26.4258 H   0  0  0  0  0  0  0  0  0  0  0  0
   -6.5061   -0.9094  -25.9586 H   0  0  0  0  0  0  0  0  0  0  0  0
   -8.3220    1.6758  -23.5127 H   0  0  0  0  0  0  0  0  0  0  0  0
   -4.5417    3.1160  -24.2632 H   0  0  0  0  0  0  0  0  0  0  0  0
  -12.1555   -0.9978  -24.6465 H   0  0  0  0  0  0  0  0  0  0  0  0
  -13.6178   -2.5417  -23.3196 H   0  0  0  0  0  0  0  0  0  0  0  0
  -10.1480   -4.3419  -21.5918 H   0  0  0  0  0  0  0  0  0  0  0  0
  1  2  1  0
  2  3  1  0
  3  4  1  0
  4  5  1  0
  5  6  2  0
  6  7  1  0
  7  8  2  0
  8  9  1  0
  9 10  2  0
 10 11  1  0
 11 12  2  0
 12 13  1  0
 13 14  2  0
  4 15  1  0
 15 16  2  0
 15 17  1  0
 17 18  1  6
 18 19  1  0
 19 20  1  0
 20 21  1  0
 21 22  2  0
 22 23  1  0
 23 24  1  0
 24 25  2  0
 19 26  1  0
 26 27  2  0
 26 28  1  0
 28 29  2  0
 29 30  1  0
 30 31  2  0
 31 32  1  0
 31 33  1  0
 33 34  2  0
 17  2  1  0
 25 21  1  0
 34 28  1  0
 14  5  1  0
 34 17  1  0
 14  9  1  0
  1 35  1  0
  1 36  1  0
  1 37  1  0
  2 38  1  1
  3 39  1  0
  3 40  1  0
  6 41  1  0
  8 42  1  0
 10 43  1  0
 11 44  1  0
 12 45  1  0
 13 46  1  0
 18 47  1  0
 18 48  1  0
 20 49  1  0
 20 50  1  0
 22 51  1  0
 24 52  1  0
 29 53  1  0
 30 54  1  0
 33 55  1  0
M  END
>  <RMSD>  (157) 
0.055379102243114785

$$$$

     RDKit          3D

 40 42  0  0  0  0  0  0  0  0999 V2000
  -10.0595    0.2545  -25.3566 C   0  0  0  0  0  0  0  0  0  0  0  0
   -9.3720   -0.5311  -24.2536 C   0  0  0  0  0  0  0  0  0  0  0  0
  -10.4390   -1.3509  -23.4931 C   0  0  0  0  0  0  0  0  0  0  0  0
   -9.8550   -2.6283  -22.8660 C   0  0  0  0  0  0  0  0  0  0  0  0
   -8.4308   -2.4865  -22.6023 N   0  0  0  0  0  0  0  0  0  0  0  0
   -8.0884   -1.9040  -21.4031 C   0  0  0  0  0  0  0  0  0  0  0  0
   -8.8912   -1.2818  -20.7331 O   0  0  0  0  0  0  0  0  0  0  0  0
   -6.6732   -2.2117  -20.9386 C   0  0  0  0  0  0  0  0  0  0  0  0
   -6.0980   -1.2293  -19.9733 C   0  0  0  0  0  0  0  0  0  0  0  0
   -6.5150   -1.2592  -18.6672 C   0  0  0  0  0  0  0  0  0  0  0  0
   -6.0324   -0.4789  -17.6696 N   0  0  0  0  0  0  0  0  0  0  0  0
   -5.0900    0.3760  -18.0030 C   0  0  0  0  0  0  0  0  0  0  0  0
   -4.5697    0.5277  -19.3216 C   0  0  0  0  0  0  0  0  0  0  0  0
   -3.5555    1.4701  -19.6322 C   0  0  0  0  0  0  0  0  0  0  0  0
   -3.1029    1.6153  -20.9178 C   0  0  0  0  0  0  0  0  0  0  0  0
   -3.6419    0.8233  -21.9552 C   0  0  0  0  0  0  0  0  0  0  0  0
   -4.6141   -0.1090  -21.6778 C   0  0  0  0  0  0  0  0  0  0  0  0
   -5.1007   -0.2859  -20.3516 C   0  0  0  0  0  0  0  0  0  0  0  0
   -7.6226   -2.3458  -23.8106 C   0  0  0  0  0  0  0  0  0  0  0  0
   -8.3670   -1.5128  -24.8695 C   0  0  0  0  0  0  0  0  0  0  0  0
  -10.5578   -0.4824  -25.9933 H   0  0  0  0  0  0  0  0  0  0  0  0
   -9.3698    0.8225  -25.9858 H   0  0  0  0  0  0  0  0  0  0  0  0
  -10.8090    0.9525  -24.9711 H   0  0  0  0  0  0  0  0  0  0  0  0
   -8.8608    0.1813  -23.5813 H   0  0  0  0  0  0  0  0  0  0  0  0
  -11.2495   -1.6289  -24.1875 H   0  0  0  0  0  0  0  0  0  0  0  0
  -10.8870   -0.7308  -22.7117 H   0  0  0  0  0  0  0  0  0  0  0  0
  -10.3614   -2.8659  -21.9275 H   0  0  0  0  0  0  0  0  0  0  0  0
   -9.9618   -3.4858  -23.5447 H   0  0  0  0  0  0  0  0  0  0  0  0
   -6.7379   -3.2001  -20.4555 H   0  0  0  0  0  0  0  0  0  0  0  0
   -6.0402   -2.3310  -21.8144 H   0  0  0  0  0  0  0  0  0  0  0  0
   -7.3001   -1.9570  -18.3819 H   0  0  0  0  0  0  0  0  0  0  0  0
   -4.7002    1.0069  -17.2045 H   0  0  0  0  0  0  0  0  0  0  0  0
   -3.1571    2.0849  -18.8297 H   0  0  0  0  0  0  0  0  0  0  0  0
   -2.3386    2.3521  -21.1539 H   0  0  0  0  0  0  0  0  0  0  0  0
   -3.2867    0.9540  -22.9758 H   0  0  0  0  0  0  0  0  0  0  0  0
   -5.0138   -0.7092  -22.4924 H   0  0  0  0  0  0  0  0  0  0  0  0
   -6.6687   -1.8781  -23.5475 H   0  0  0  0  0  0  0  0  0  0  0  0
   -7.4070   -3.3357  -24.2241 H   0  0  0  0  0  0  0  0  0  0  0  0
   -8.9334   -2.1955  -25.5247 H   0  0  0  0  0  0  0  0  0  0  0  0
   -7.6518   -0.9800  -25.5088 H   0  0  0  0  0  0  0  0  0  0  0  0
  1  2  1  0
  2  3  1  0
  3  4  1  0
  4  5  1  0
  5  6  1  0
  6  7  2  0
  6  8  1  0
  8  9  1  0
  9 10  2  0
 10 11  1  0
 11 12  2  0
 12 13  1  0
 13 14  2  0
 14 15  1  0
 15 16  2  0
 16 17  1  0
 17 18  2  0
  5 19  1  0
 19 20  1  0
 20  2  1  0
 18  9  1  0
 18 13  1  0
  1 21  1  0
  1 22  1  0
  1 23  1  0
  2 24  1  0
  3 25  1  0
  3 26  1  0
  4 27  1  0
  4 28  1  0
  8 29  1  0
  8 30  1  0
 10 31  1  0
 12 32  1  0
 14 33  1  0
 15 34  1  0
 16 35  1  0
 17 36  1  0
 19 37  1  0
 19 38  1  0
 20 39  1  0
 20 40  1  0
M  END
>  <RMSD>  (158) 
0.04031743548536566

$$$$

     RDKit          3D

 59 64  0  0  0  0  0  0  0  0999 V2000
   -7.2354   -5.0317  -23.0325 C   0  0  0  0  0  0  0  0  0  0  0  0
   -7.5629   -3.8718  -22.1009 C   0  0  1  0  0  0  0  0  0  0  0  0
   -6.3509   -3.2987  -21.3532 C   0  0  0  0  0  0  0  0  0  0  0  0
   -6.8143   -1.9780  -20.9712 N   0  0  0  0  0  0  0  0  0  0  0  0
   -6.1796   -1.1518  -20.0063 C   0  0  0  0  0  0  0  0  0  0  0  0
   -6.5459   -1.2423  -18.6890 C   0  0  0  0  0  0  0  0  0  0  0  0
   -6.0104   -0.5025  -17.6834 N   0  0  0  0  0  0  0  0  0  0  0  0
   -5.0720    0.3586  -18.0026 C   0  0  0  0  0  0  0  0  0  0  0  0
   -4.5719    0.5407  -19.3244 C   0  0  0  0  0  0  0  0  0  0  0  0
   -3.5556    1.4892  -19.6318 C   0  0  0  0  0  0  0  0  0  0  0  0
   -3.0992    1.6234  -20.9125 C   0  0  0  0  0  0  0  0  0  0  0  0
   -3.6249    0.8130  -21.9475 C   0  0  0  0  0  0  0  0  0  0  0  0
   -4.6256   -0.0878  -21.6851 C   0  0  0  0  0  0  0  0  0  0  0  0
   -5.1276   -0.2465  -20.3653 C   0  0  0  0  0  0  0  0  0  0  0  0
   -7.8859   -1.5330  -21.7164 C   0  0  0  0  0  0  0  0  0  0  0  0
   -8.4181   -0.4565  -21.5617 O   0  0  0  0  0  0  0  0  0  0  0  0
   -8.2386   -2.6324  -22.7515 C   0  0  1  0  0  0  0  0  0  0  0  0
   -7.5990   -2.2859  -24.1221 C   0  0  0  0  0  0  0  0  0  0  0  0
   -8.1725   -1.0934  -24.7152 N   0  0  0  0  0  0  0  0  0  0  0  0
   -7.3206   -0.2910  -25.5760 C   0  0  0  0  0  0  0  0  0  0  0  0
   -6.7412    0.8898  -24.8567 C   0  0  0  0  0  0  0  0  0  0  0  0
   -7.3443    1.7210  -23.9446 C   0  0  0  0  0  0  0  0  0  0  0  0
   -6.3695    2.6883  -23.6507 C   0  0  0  0  0  0  0  0  0  0  0  0
   -5.2468    2.4755  -24.3313 N   0  0  0  0  0  0  0  0  0  0  0  0
   -5.4915    1.3734  -25.0582 N   0  0  0  0  0  0  0  0  0  0  0  0
   -4.4639    0.7977  -25.8950 C   0  0  0  0  0  0  0  0  0  0  0  0
   -9.5112   -0.8239  -24.6568 C   0  0  0  0  0  0  0  0  0  0  0  0
  -10.0061    0.1336  -25.2344 O   0  0  0  0  0  0  0  0  0  0  0  0
  -10.3362   -1.7835  -23.8395 C   0  0  0  0  0  0  0  0  0  0  0  0
  -11.7258   -1.7243  -23.9638 C   0  0  0  0  0  0  0  0  0  0  0  0
  -12.5401   -2.5792  -23.2455 C   0  0  0  0  0  0  0  0  0  0  0  0
  -11.9249   -3.5031  -22.4041 C   0  0  0  0  0  0  0  0  0  0  0  0
  -12.6974   -4.3374  -21.6871 F   0  0  0  0  0  0  0  0  0  0  0  0
  -10.5548   -3.5880  -22.2564 C   0  0  0  0  0  0  0  0  0  0  0  0
   -9.7329   -2.7098  -22.9713 C   0  0  0  0  0  0  0  0  0  0  0  0
   -8.1103   -5.3408  -23.6137 H   0  0  0  0  0  0  0  0  0  0  0  0
   -6.8774   -5.9058  -22.4782 H   0  0  0  0  0  0  0  0  0  0  0  0
   -6.4571   -4.7545  -23.7503 H   0  0  0  0  0  0  0  0  0  0  0  0
   -8.2398   -4.2402  -21.3265 H   0  0  0  0  0  0  0  0  0  0  0  0
   -5.4651   -3.2731  -22.0127 H   0  0  0  0  0  0  0  0  0  0  0  0
   -6.0835   -3.8815  -20.4682 H   0  0  0  0  0  0  0  0  0  0  0  0
   -7.3269   -1.9386  -18.3915 H   0  0  0  0  0  0  0  0  0  0  0  0
   -4.6525    0.9625  -17.1951 H   0  0  0  0  0  0  0  0  0  0  0  0
   -3.1569    2.1105  -18.8304 H   0  0  0  0  0  0  0  0  0  0  0  0
   -2.3337    2.3580  -21.1539 H   0  0  0  0  0  0  0  0  0  0  0  0
   -3.2634    0.9368  -22.9641 H   0  0  0  0  0  0  0  0  0  0  0  0
   -5.0433   -0.7073  -22.4761 H   0  0  0  0  0  0  0  0  0  0  0  0
   -7.7324   -3.1289  -24.8151 H   0  0  0  0  0  0  0  0  0  0  0  0
   -6.5260   -2.1138  -23.9920 H   0  0  0  0  0  0  0  0  0  0  0  0
   -6.5316   -0.9397  -25.9868 H   0  0  0  0  0  0  0  0  0  0  0  0
   -7.9399    0.0588  -26.4089 H   0  0  0  0  0  0  0  0  0  0  0  0
   -8.3619    1.6425  -23.5853 H   0  0  0  0  0  0  0  0  0  0  0  0
   -6.4493    3.5263  -22.9740 H   0  0  0  0  0  0  0  0  0  0  0  0
   -3.6012    1.4575  -25.8838 H   0  0  0  0  0  0  0  0  0  0  0  0
   -4.1582   -0.1982  -25.5568 H   0  0  0  0  0  0  0  0  0  0  0  0
   -4.8149    0.7007  -26.9244 H   0  0  0  0  0  0  0  0  0  0  0  0
  -12.1566   -0.9932  -24.6384 H   0  0  0  0  0  0  0  0  0  0  0  0
  -13.6256   -2.5429  -23.3089 H   0  0  0  0  0  0  0  0  0  0  0  0
  -10.1497   -4.3412  -21.5868 H   0  0  0  0  0  0  0  0  0  0  0  0
  1  2  1  0
  2  3  1  0
  3  4  1  0
  4  5  1  0
  5  6  2  0
  6  7  1  0
  7  8  2  0
  8  9  1  0
  9 10  2  0
 10 11  1  0
 11 12  2  0
 12 13  1  0
 13 14  2  0
  4 15  1  0
 15 16  2  0
 15 17  1  0
 17 18  1  6
 18 19  1  0
 19 20  1  0
 20 21  1  0
 21 22  2  0
 22 23  1  0
 23 24  2  0
 24 25  1  0
 25 26  1  0
 19 27  1  0
 27 28  2  0
 27 29  1  0
 29 30  2  0
 30 31  1  0
 31 32  2  0
 32 33  1  0
 32 34  1  0
 34 35  2  0
 17  2  1  0
 25 21  1  0
 35 29  1  0
 14  5  1  0
 35 17  1  0
 14  9  1  0
  1 36  1  0
  1 37  1  0
  1 38  1  0
  2 39  1  1
  3 40  1  0
  3 41  1  0
  6 42  1  0
  8 43  1  0
 10 44  1  0
 11 45  1  0
 12 46  1  0
 13 47  1  0
 18 48  1  0
 18 49  1  0
 20 50  1  0
 20 51  1  0
 22 52  1  0
 23 53  1  0
 26 54  1  0
 26 55  1  0
 26 56  1  0
 30 57  1  0
 31 58  1  0
 34 59  1  0
M  END
>  <RMSD>  (159) 
0.05621736799171975

$$$$

     RDKit          3D

 58 63  0  0  0  0  0  0  0  0999 V2000
    3.5329    5.0511   23.2551 C   0  0  0  0  0  0  0  0  0  0  0  0
    4.7270    4.1996   23.5110 C   0  0  0  0  0  0  0  0  0  0  0  0
    4.8445    3.2994   24.4346 N   0  0  0  0  0  0  0  0  0  0  0  0
    6.1457    2.8406   24.2948 C   0  0  0  0  0  0  0  0  0  0  0  0
    6.7601    1.8205   25.1913 C   0  0  0  0  0  0  0  0  0  0  0  0
    7.6833    0.9379   24.5054 N   0  0  0  0  0  0  0  0  0  0  0  0
    7.2099   -0.3784   24.1156 C   0  0  0  0  0  0  0  0  0  0  0  0
    7.9235   -0.9115   22.8450 C   0  0  2  0  0  0  0  0  0  0  0  0
    7.5417   -0.0240   21.6312 C   0  0  0  0  0  0  0  0  0  0  0  0
    8.0093    1.0520   21.3210 O   0  0  0  0  0  0  0  0  0  0  0  0
    6.5330   -0.6599   20.9402 N   0  0  0  0  0  0  0  0  0  0  0  0
    5.8829   -0.0578   19.8316 C   0  0  0  0  0  0  0  0  0  0  0  0
    6.3044   -0.3476   18.5586 C   0  0  0  0  0  0  0  0  0  0  0  0
    5.7654    0.1740   17.4283 N   0  0  0  0  0  0  0  0  0  0  0  0
    4.7622    1.0127   17.5661 C   0  0  0  0  0  0  0  0  0  0  0  0
    4.2013    1.3805   18.8244 C   0  0  0  0  0  0  0  0  0  0  0  0
    3.1172    2.2978   18.9373 C   0  0  0  0  0  0  0  0  0  0  0  0
    2.6111    2.6208   20.1689 C   0  0  0  0  0  0  0  0  0  0  0  0
    3.1498    2.0417   21.3419 C   0  0  0  0  0  0  0  0  0  0  0  0
    4.2058    1.1686   21.2614 C   0  0  0  0  0  0  0  0  0  0  0  0
    4.7631    0.8204   19.9991 C   0  0  0  0  0  0  0  0  0  0  0  0
    6.1388   -1.9251   21.5318 C   0  0  0  0  0  0  0  0  0  0  0  0
    7.3512   -2.2852   22.3978 C   0  0  2  0  0  0  0  0  0  0  0  0
    7.0631   -3.2854   23.5070 C   0  0  0  0  0  0  0  0  0  0  0  0
    9.4119   -0.8453   23.1163 C   0  0  0  0  0  0  0  0  0  0  0  0
   10.3129   -1.7733   22.5852 C   0  0  0  0  0  0  0  0  0  0  0  0
   11.6676   -1.5694   22.7547 C   0  0  0  0  0  0  0  0  0  0  0  0
   12.5146   -2.4593   22.2122 F   0  0  0  0  0  0  0  0  0  0  0  0
   12.1900   -0.4780   23.4393 C   0  0  0  0  0  0  0  0  0  0  0  0
   11.2990    0.4295   23.9787 C   0  0  0  0  0  0  0  0  0  0  0  0
    9.9204    0.2560   23.8280 C   0  0  0  0  0  0  0  0  0  0  0  0
    9.0043    1.2857   24.4370 C   0  0  0  0  0  0  0  0  0  0  0  0
    9.4150    2.3609   24.8516 O   0  0  0  0  0  0  0  0  0  0  0  0
    6.7416    3.4783   23.2691 C   0  0  0  0  0  0  0  0  0  0  0  0
    5.8398    4.3737   22.7611 O   0  0  0  0  0  0  0  0  0  0  0  0
    3.3677    5.2070   22.1889 H   0  0  0  0  0  0  0  0  0  0  0  0
    2.6636    4.5646   23.6969 H   0  0  0  0  0  0  0  0  0  0  0  0
    3.6394    6.0280   23.7325 H   0  0  0  0  0  0  0  0  0  0  0  0
    5.9688    1.2206   25.6479 H   0  0  0  0  0  0  0  0  0  0  0  0
    7.3027    2.3226   25.9984 H   0  0  0  0  0  0  0  0  0  0  0  0
    7.3702   -1.0721   24.9519 H   0  0  0  0  0  0  0  0  0  0  0  0
    6.1327   -0.3109   23.9313 H   0  0  0  0  0  0  0  0  0  0  0  0
    7.1400   -1.0274   18.4068 H   0  0  0  0  0  0  0  0  0  0  0  0
    4.3354    1.4417   16.6568 H   0  0  0  0  0  0  0  0  0  0  0  0
    2.7070    2.7461   18.0344 H   0  0  0  0  0  0  0  0  0  0  0  0
    1.7876    3.3276   20.2559 H   0  0  0  0  0  0  0  0  0  0  0  0
    2.7429    2.2985   22.3180 H   0  0  0  0  0  0  0  0  0  0  0  0
    4.6277    0.7302   22.1615 H   0  0  0  0  0  0  0  0  0  0  0  0
    5.9481   -2.6687   20.7560 H   0  0  0  0  0  0  0  0  0  0  0  0
    5.2307   -1.8520   22.1545 H   0  0  0  0  0  0  0  0  0  0  0  0
    8.0755   -2.7382   21.7163 H   0  0  0  0  0  0  0  0  0  0  0  0
    7.9306   -3.4321   24.1577 H   0  0  0  0  0  0  0  0  0  0  0  0
    6.2427   -2.9456   24.1428 H   0  0  0  0  0  0  0  0  0  0  0  0
    6.7822   -4.2613   23.1027 H   0  0  0  0  0  0  0  0  0  0  0  0
    9.9822   -2.6546   22.0454 H   0  0  0  0  0  0  0  0  0  0  0  0
   13.2672   -0.3561   23.5266 H   0  0  0  0  0  0  0  0  0  0  0  0
   11.6627    1.2890   24.5293 H   0  0  0  0  0  0  0  0  0  0  0  0
    7.7268    3.4202   22.8256 H   0  0  0  0  0  0  0  0  0  0  0  0
  1  2  1  0
  2  3  2  0
  3  4  1  0
  4  5  1  0
  5  6  1  0
  6  7  1  0
  8  7  1  1
  8  9  1  0
  9 10  2  0
  9 11  1  0
 11 12  1  0
 12 13  2  0
 13 14  1  0
 14 15  2  0
 15 16  1  0
 16 17  2  0
 17 18  1  0
 18 19  2  0
 19 20  1  0
 20 21  2  0
 11 22  1  0
 22 23  1  0
 23 24  1  0
  8 25  1  0
 25 26  2  0
 26 27  1  0
 27 28  1  0
 27 29  2  0
 29 30  1  0
 30 31  2  0
 31 32  1  0
 32 33  2  0
  4 34  2  0
 34 35  1  0
 35  2  1  0
 32  6  1  0
 23  8  1  0
 31 25  1  0
 21 12  1  0
 21 16  1  0
  1 36  1  0
  1 37  1  0
  1 38  1  0
  5 39  1  0
  5 40  1  0
  7 41  1  0
  7 42  1  0
 13 43  1  0
 15 44  1  0
 17 45  1  0
 18 46  1  0
 19 47  1  0
 20 48  1  0
 22 49  1  0
 22 50  1  0
 23 51  1  6
 24 52  1  0
 24 53  1  0
 24 54  1  0
 26 55  1  0
 29 56  1  0
 30 57  1  0
 34 58  1  0
M  END
>  <RMSD>  (160) 
0.17172301581135296

$$$$

     RDKit          3D

 56 60  0  0  0  0  0  0  0  0999 V2000
   -6.7629    2.6512  -23.2217 C   0  0  0  0  0  0  0  0  0  0  0  0
   -7.3101    1.4746  -23.8591 N   0  0  0  0  0  0  0  0  0  0  0  0
   -6.8326    1.0639  -25.0526 C   0  0  0  0  0  0  0  0  0  0  0  0
   -6.0153    1.6969  -25.7059 O   0  0  0  0  0  0  0  0  0  0  0  0
   -7.3271   -0.2874  -25.5806 C   0  0  0  0  0  0  0  0  0  0  0  0
   -8.1444   -1.0840  -24.6885 N   0  0  0  0  0  0  0  0  0  0  0  0
   -7.5806   -2.2946  -24.1193 C   0  0  0  0  0  0  0  0  0  0  0  0
   -8.2277   -2.6418  -22.7536 C   0  0  2  0  0  0  0  0  0  0  0  0
   -7.8765   -1.5373  -21.7239 C   0  0  0  0  0  0  0  0  0  0  0  0
   -8.4077   -0.4515  -21.5919 O   0  0  0  0  0  0  0  0  0  0  0  0
   -6.8129   -1.9804  -20.9681 N   0  0  0  0  0  0  0  0  0  0  0  0
   -6.1774   -1.1521  -20.0045 C   0  0  0  0  0  0  0  0  0  0  0  0
   -6.5467   -1.2430  -18.6871 C   0  0  0  0  0  0  0  0  0  0  0  0
   -6.0146   -0.5020  -17.6825 N   0  0  0  0  0  0  0  0  0  0  0  0
   -5.0749    0.3596  -17.9999 C   0  0  0  0  0  0  0  0  0  0  0  0
   -4.5715    0.5405  -19.3221 C   0  0  0  0  0  0  0  0  0  0  0  0
   -3.5537    1.4876  -19.6293 C   0  0  0  0  0  0  0  0  0  0  0  0
   -3.0982    1.6213  -20.9141 C   0  0  0  0  0  0  0  0  0  0  0  0
   -3.6263    0.8172  -21.9517 C   0  0  0  0  0  0  0  0  0  0  0  0
   -4.6201   -0.0915  -21.6833 C   0  0  0  0  0  0  0  0  0  0  0  0
   -5.1269   -0.2475  -20.3620 C   0  0  0  0  0  0  0  0  0  0  0  0
   -6.3449   -3.3018  -21.3486 C   0  0  0  0  0  0  0  0  0  0  0  0
   -7.5533   -3.8784  -22.0982 C   0  0  2  0  0  0  0  0  0  0  0  0
   -7.2248   -5.0396  -23.0266 C   0  0  0  0  0  0  0  0  0  0  0  0
   -9.7232   -2.7181  -22.9787 C   0  0  0  0  0  0  0  0  0  0  0  0
  -10.5502   -3.5900  -22.2610 C   0  0  0  0  0  0  0  0  0  0  0  0
  -11.9250   -3.5107  -22.3999 C   0  0  0  0  0  0  0  0  0  0  0  0
  -12.9249   -4.5735  -21.4488 Cl  0  0  0  0  0  0  0  0  0  0  0  0
  -12.5238   -2.5852  -23.2571 C   0  0  0  0  0  0  0  0  0  0  0  0
  -11.7095   -1.7326  -23.9818 C   0  0  0  0  0  0  0  0  0  0  0  0
  -10.3203   -1.7949  -23.8538 C   0  0  0  0  0  0  0  0  0  0  0  0
   -9.4897   -0.8387  -24.6623 C   0  0  0  0  0  0  0  0  0  0  0  0
   -9.9715    0.1216  -25.2484 O   0  0  0  0  0  0  0  0  0  0  0  0
   -6.8664    3.5419  -23.8494 H   0  0  0  0  0  0  0  0  0  0  0  0
   -5.6997    2.5094  -23.0000 H   0  0  0  0  0  0  0  0  0  0  0  0
   -7.2925    2.8049  -22.2802 H   0  0  0  0  0  0  0  0  0  0  0  0
   -8.1035    1.0194  -23.4279 H   0  0  0  0  0  0  0  0  0  0  0  0
   -6.4308   -0.8612  -25.8355 H   0  0  0  0  0  0  0  0  0  0  0  0
   -7.8643   -0.1101  -26.5191 H   0  0  0  0  0  0  0  0  0  0  0  0
   -6.5066   -2.1339  -23.9837 H   0  0  0  0  0  0  0  0  0  0  0  0
   -7.7152   -3.1349  -24.8166 H   0  0  0  0  0  0  0  0  0  0  0  0
   -7.3291   -1.9383  -18.3915 H   0  0  0  0  0  0  0  0  0  0  0  0
   -4.6577    0.9644  -17.1927 H   0  0  0  0  0  0  0  0  0  0  0  0
   -3.1552    2.1093  -18.8286 H   0  0  0  0  0  0  0  0  0  0  0  0
   -2.3299    2.3520  -21.1557 H   0  0  0  0  0  0  0  0  0  0  0  0
   -3.2746    0.9425  -22.9746 H   0  0  0  0  0  0  0  0  0  0  0  0
   -5.0340   -0.7018  -22.4827 H   0  0  0  0  0  0  0  0  0  0  0  0
   -5.4576   -3.2794  -22.0057 H   0  0  0  0  0  0  0  0  0  0  0  0
   -6.0807   -3.8838  -20.4629 H   0  0  0  0  0  0  0  0  0  0  0  0
   -8.2333   -4.2429  -21.3257 H   0  0  0  0  0  0  0  0  0  0  0  0
   -6.8689   -5.9126  -22.4708 H   0  0  0  0  0  0  0  0  0  0  0  0
   -6.4453   -4.7652  -23.7427 H   0  0  0  0  0  0  0  0  0  0  0  0
   -8.0970   -5.3503  -23.6104 H   0  0  0  0  0  0  0  0  0  0  0  0
  -10.1293   -4.3346  -21.5933 H   0  0  0  0  0  0  0  0  0  0  0  0
  -13.6074   -2.5363  -23.3320 H   0  0  0  0  0  0  0  0  0  0  0  0
  -12.1397   -1.0009  -24.6588 H   0  0  0  0  0  0  0  0  0  0  0  0
  1  2  1  0
  2  3  1  0
  3  4  2  0
  3  5  1  0
  5  6  1  0
  6  7  1  0
  8  7  1  6
  8  9  1  0
  9 10  2  0
  9 11  1  0
 11 12  1  0
 12 13  2  0
 13 14  1  0
 14 15  2  0
 15 16  1  0
 16 17  2  0
 17 18  1  0
 18 19  2  0
 19 20  1  0
 20 21  2  0
 11 22  1  0
 22 23  1  0
 23 24  1  0
  8 25  1  0
 25 26  2  0
 26 27  1  0
 27 28  1  0
 27 29  2  0
 29 30  1  0
 30 31  2  0
 31 32  1  0
 32 33  2  0
 32  6  1  0
 23  8  1  0
 31 25  1  0
 21 12  1  0
 21 16  1  0
  1 34  1  0
  1 35  1  0
  1 36  1  0
  2 37  1  0
  5 38  1  0
  5 39  1  0
  7 40  1  0
  7 41  1  0
 13 42  1  0
 15 43  1  0
 17 44  1  0
 18 45  1  0
 19 46  1  0
 20 47  1  0
 22 48  1  0
 22 49  1  0
 23 50  1  1
 24 51  1  0
 24 52  1  0
 24 53  1  0
 26 54  1  0
 29 55  1  0
 30 56  1  0
M  END
>  <RMSD>  (161) 
0.05695479367165961

$$$$

     RDKit          3D

 45 49  0  0  0  0  0  0  0  0999 V2000
   -9.4846   -1.8260  -23.5343 C   0  0  0  0  0  0  0  0  0  0  0  0
   -8.3683   -2.1226  -22.6532 N   0  0  0  0  0  0  0  0  0  0  0  0
   -7.9836   -1.2545  -21.6675 C   0  0  0  0  0  0  0  0  0  0  0  0
   -8.4468   -0.1676  -21.4075 O   0  0  0  0  0  0  0  0  0  0  0  0
   -6.9354   -1.8706  -20.9672 N   0  0  0  0  0  0  0  0  0  0  0  0
   -6.1841   -1.1543  -19.9844 C   0  0  0  0  0  0  0  0  0  0  0  0
   -6.5390   -1.2297  -18.6659 C   0  0  0  0  0  0  0  0  0  0  0  0
   -5.9945   -0.4744  -17.6752 N   0  0  0  0  0  0  0  0  0  0  0  0
   -5.0704    0.3929  -18.0088 C   0  0  0  0  0  0  0  0  0  0  0  0
   -4.5686    0.5487  -19.3312 C   0  0  0  0  0  0  0  0  0  0  0  0
   -3.5597    1.4970  -19.6504 C   0  0  0  0  0  0  0  0  0  0  0  0
   -3.0913    1.5936  -20.9309 C   0  0  0  0  0  0  0  0  0  0  0  0
   -3.6025    0.7480  -21.9434 C   0  0  0  0  0  0  0  0  0  0  0  0
   -4.5877   -0.1648  -21.6623 C   0  0  0  0  0  0  0  0  0  0  0  0
   -5.1166   -0.2680  -20.3499 C   0  0  0  0  0  0  0  0  0  0  0  0
   -6.6975   -3.1631  -21.4310 C   0  0  0  0  0  0  0  0  0  0  0  0
   -5.9046   -3.9467  -20.9675 O   0  0  0  0  0  0  0  0  0  0  0  0
   -7.6405   -3.3653  -22.6208 C   0  0  0  0  0  0  0  0  0  0  0  0
   -6.9641   -3.8948  -23.9066 C   0  0  0  0  0  0  0  0  0  0  0  0
   -7.6944   -5.1832  -23.7911 N   0  0  0  0  0  0  0  0  0  0  0  0
   -8.6623   -5.6358  -25.1059 S   0  0  0  0  0  0  0  0  0  0  0  0
   -9.5307   -6.6916  -24.6292 O   0  0  0  0  0  0  0  0  0  0  0  0
   -9.2033   -4.4222  -25.7148 O   0  0  0  0  0  0  0  0  0  0  0  0
   -7.5770   -6.4017  -26.2874 C   0  0  0  0  0  0  0  0  0  0  0  0
   -8.2082   -7.4222  -27.2077 C   0  0  0  0  0  0  0  0  0  0  0  0
   -7.2724   -7.8672  -26.1241 C   0  0  0  0  0  0  0  0  0  0  0  0
   -8.4471   -4.6782  -22.5955 C   0  0  0  0  0  0  0  0  0  0  0  0
   -9.2297   -1.0140  -24.2228 H   0  0  0  0  0  0  0  0  0  0  0  0
  -10.3397   -1.5027  -22.9350 H   0  0  0  0  0  0  0  0  0  0  0  0
   -9.7561   -2.7102  -24.1164 H   0  0  0  0  0  0  0  0  0  0  0  0
   -7.3030   -1.9348  -18.3499 H   0  0  0  0  0  0  0  0  0  0  0  0
   -4.6733    1.0282  -17.2132 H   0  0  0  0  0  0  0  0  0  0  0  0
   -3.1851    2.1475  -18.8611 H   0  0  0  0  0  0  0  0  0  0  0  0
   -2.3241    2.3217  -21.1829 H   0  0  0  0  0  0  0  0  0  0  0  0
   -3.2226    0.8326  -22.9569 H   0  0  0  0  0  0  0  0  0  0  0  0
   -4.9884   -0.8137  -22.4359 H   0  0  0  0  0  0  0  0  0  0  0  0
   -5.8869   -4.0397  -23.8108 H   0  0  0  0  0  0  0  0  0  0  0  0
   -7.2202   -3.3203  -24.8006 H   0  0  0  0  0  0  0  0  0  0  0  0
   -6.8178   -5.7417  -26.6896 H   0  0  0  0  0  0  0  0  0  0  0  0
   -9.2719   -7.6160  -27.0816 H   0  0  0  0  0  0  0  0  0  0  0  0
   -7.8641   -7.4533  -28.2412 H   0  0  0  0  0  0  0  0  0  0  0  0
   -7.6978   -8.3670  -25.2557 H   0  0  0  0  0  0  0  0  0  0  0  0
   -6.2774   -8.2045  -26.4138 H   0  0  0  0  0  0  0  0  0  0  0  0
   -9.5297   -4.5894  -22.7404 H   0  0  0  0  0  0  0  0  0  0  0  0
   -8.2219   -5.2285  -21.6908 H   0  0  0  0  0  0  0  0  0  0  0  0
  1  2  1  0
  2  3  1  0
  3  4  2  0
  3  5  1  0
  5  6  1  0
  6  7  2  0
  7  8  1  0
  8  9  2  0
  9 10  1  0
 10 11  2  0
 11 12  1  0
 12 13  2  0
 13 14  1  0
 14 15  2  0
  5 16  1  0
 16 17  2  0
 16 18  1  0
 18 19  1  0
 19 20  1  0
 20 21  1  0
 21 22  2  0
 21 23  2  0
 21 24  1  0
 24 25  1  0
 25 26  1  0
 20 27  1  0
 18  2  1  0
 26 24  1  0
 15  6  1  0
 27 18  1  0
 15 10  1  0
  1 28  1  0
  1 29  1  0
  1 30  1  0
  7 31  1  0
  9 32  1  0
 11 33  1  0
 12 34  1  0
 13 35  1  0
 14 36  1  0
 19 37  1  0
 19 38  1  0
 24 39  1  0
 25 40  1  0
 25 41  1  0
 26 42  1  0
 26 43  1  0
 27 44  1  0
 27 45  1  0
M  END
>  <RMSD>  (162) 
1.5758648719290522

$$$$

     RDKit          3D

 55 60  0  0  0  0  0  0  0  0999 V2000
    7.0685   -3.2828   23.5074 C   0  0  0  0  0  0  0  0  0  0  0  0
    7.3571   -2.2804   22.3972 C   0  0  1  0  0  0  0  0  0  0  0  0
    6.1404   -1.9251   21.5322 C   0  0  0  0  0  0  0  0  0  0  0  0
    6.5303   -0.6591   20.9408 N   0  0  0  0  0  0  0  0  0  0  0  0
    5.8816   -0.0568   19.8299 C   0  0  0  0  0  0  0  0  0  0  0  0
    6.3053   -0.3453   18.5585 C   0  0  0  0  0  0  0  0  0  0  0  0
    5.7643    0.1748   17.4277 N   0  0  0  0  0  0  0  0  0  0  0  0
    4.7620    1.0116   17.5680 C   0  0  0  0  0  0  0  0  0  0  0  0
    4.2010    1.3823   18.8249 C   0  0  0  0  0  0  0  0  0  0  0  0
    3.1166    2.2992   18.9401 C   0  0  0  0  0  0  0  0  0  0  0  0
    2.6108    2.6210   20.1694 C   0  0  0  0  0  0  0  0  0  0  0  0
    3.1503    2.0410   21.3414 C   0  0  0  0  0  0  0  0  0  0  0  0
    4.2044    1.1622   21.2605 C   0  0  0  0  0  0  0  0  0  0  0  0
    4.7634    0.8216   19.9989 C   0  0  0  0  0  0  0  0  0  0  0  0
    7.5468   -0.0219   21.6251 C   0  0  0  0  0  0  0  0  0  0  0  0
    8.0172    1.0454   21.3006 O   0  0  0  0  0  0  0  0  0  0  0  0
    7.9281   -0.9076   22.8409 C   0  0  1  0  0  0  0  0  0  0  0  0
    7.2129   -0.3803   24.1122 C   0  0  0  0  0  0  0  0  0  0  0  0
    7.6765    0.9452   24.4745 N   0  0  0  0  0  0  0  0  0  0  0  0
    6.7812    1.8349   25.1800 C   0  0  0  0  0  0  0  0  0  0  0  0
    6.4024    3.0597   24.4025 C   0  0  0  0  0  0  0  0  0  0  0  0
    6.2338    4.2525   24.8665 N   0  0  0  0  0  0  0  0  0  0  0  0
    5.8611    4.9937   23.7554 C   0  0  0  0  0  0  0  0  0  0  0  0
    5.8054    4.1939   22.6697 C   0  0  0  0  0  0  0  0  0  0  0  0
    6.1482    2.9323   23.0840 O   0  0  0  0  0  0  0  0  0  0  0  0
    8.9996    1.2862   24.4226 C   0  0  0  0  0  0  0  0  0  0  0  0
    9.4040    2.3549   24.8605 O   0  0  0  0  0  0  0  0  0  0  0  0
    9.9218    0.2626   23.8209 C   0  0  0  0  0  0  0  0  0  0  0  0
   11.3000    0.4366   23.9739 C   0  0  0  0  0  0  0  0  0  0  0  0
   12.1937   -0.4711   23.4362 C   0  0  0  0  0  0  0  0  0  0  0  0
   11.6727   -1.5650   22.7507 C   0  0  0  0  0  0  0  0  0  0  0  0
   12.5222   -2.4544   22.2085 F   0  0  0  0  0  0  0  0  0  0  0  0
   10.3177   -1.7687   22.5836 C   0  0  0  0  0  0  0  0  0  0  0  0
    9.4149   -0.8410   23.1139 C   0  0  0  0  0  0  0  0  0  0  0  0
    6.7878   -4.2606   23.1033 H   0  0  0  0  0  0  0  0  0  0  0  0
    6.2478   -2.9417   24.1458 H   0  0  0  0  0  0  0  0  0  0  0  0
    7.9385   -3.4274   24.1566 H   0  0  0  0  0  0  0  0  0  0  0  0
    8.0838   -2.7287   21.7157 H   0  0  0  0  0  0  0  0  0  0  0  0
    5.2314   -1.8492   22.1547 H   0  0  0  0  0  0  0  0  0  0  0  0
    5.9458   -2.6678   20.7553 H   0  0  0  0  0  0  0  0  0  0  0  0
    7.1408   -1.0262   18.4081 H   0  0  0  0  0  0  0  0  0  0  0  0
    4.3360    1.4390   16.6576 H   0  0  0  0  0  0  0  0  0  0  0  0
    2.7083    2.7446   18.0343 H   0  0  0  0  0  0  0  0  0  0  0  0
    1.7869    3.3263   20.2576 H   0  0  0  0  0  0  0  0  0  0  0  0
    2.7433    2.3074   22.3133 H   0  0  0  0  0  0  0  0  0  0  0  0
    4.6314    0.7242   22.1603 H   0  0  0  0  0  0  0  0  0  0  0  0
    6.1356   -0.3140   23.9234 H   0  0  0  0  0  0  0  0  0  0  0  0
    7.3778   -1.0753   24.9502 H   0  0  0  0  0  0  0  0  0  0  0  0
    7.2317    2.1736   26.1150 H   0  0  0  0  0  0  0  0  0  0  0  0
    5.8746    1.2772   25.4463 H   0  0  0  0  0  0  0  0  0  0  0  0
    5.6603    6.0510   23.8253 H   0  0  0  0  0  0  0  0  0  0  0  0
    5.5651    4.3411   21.6245 H   0  0  0  0  0  0  0  0  0  0  0  0
   11.6640    1.2973   24.5231 H   0  0  0  0  0  0  0  0  0  0  0  0
   13.2718   -0.3502   23.5212 H   0  0  0  0  0  0  0  0  0  0  0  0
    9.9858   -2.6498   22.0434 H   0  0  0  0  0  0  0  0  0  0  0  0
  1  2  1  0
  2  3  1  0
  3  4  1  0
  4  5  1  0
  5  6  2  0
  6  7  1  0
  7  8  2  0
  8  9  1  0
  9 10  2  0
 10 11  1  0
 11 12  2  0
 12 13  1  0
 13 14  2  0
  4 15  1  0
 15 16  2  0
 15 17  1  0
 17 18  1  1
 18 19  1  0
 19 20  1  0
 20 21  1  0
 21 22  2  0
 22 23  1  0
 23 24  2  0
 24 25  1  0
 19 26  1  0
 26 27  2  0
 26 28  1  0
 28 29  2  0
 29 30  1  0
 30 31  2  0
 31 32  1  0
 31 33  1  0
 33 34  2  0
 17  2  1  0
 25 21  1  0
 34 28  1  0
 14  5  1  0
 34 17  1  0
 14  9  1  0
  1 35  1  0
  1 36  1  0
  1 37  1  0
  2 38  1  6
  3 39  1  0
  3 40  1  0
  6 41  1  0
  8 42  1  0
 10 43  1  0
 11 44  1  0
 12 45  1  0
 13 46  1  0
 18 47  1  0
 18 48  1  0
 20 49  1  0
 20 50  1  0
 23 51  1  0
 24 52  1  0
 29 53  1  0
 30 54  1  0
 33 55  1  0
M  END
>  <RMSD>  (163) 
0.17212323641996433

$$$$

     RDKit          3D

 72 77  0  0  0  0  0  0  0  0999 V2000
    4.5406    4.1877   24.0474 C   0  0  0  0  0  0  0  0  0  0  0  0
    5.4801    5.0260   23.1993 C   0  0  2  0  0  0  0  0  0  0  0  0
    5.0387    5.1439   21.7461 C   0  0  0  0  0  0  0  0  0  0  0  0
    5.8905    6.0283   21.0400 O   0  0  0  0  0  0  0  0  0  0  0  0
    7.2144    5.5326   21.0174 C   0  0  0  0  0  0  0  0  0  0  0  0
    7.8118    5.4417   22.4173 C   0  0  1  0  0  0  0  0  0  0  0  0
    7.9907    6.8359   23.0037 C   0  0  0  0  0  0  0  0  0  0  0  0
    6.9344    4.5577   23.2934 N   0  0  0  0  0  0  0  0  0  0  0  0
    7.1469    3.0724   23.1041 C   0  0  0  0  0  0  0  0  0  0  0  0
    7.1948    2.3091   24.4453 C   0  0  0  0  0  0  0  0  0  0  0  0
    7.9300    1.0619   24.3208 N   0  0  0  0  0  0  0  0  0  0  0  0
    7.2914   -0.1788   23.9196 C   0  0  0  0  0  0  0  0  0  0  0  0
    8.0180   -0.8551   22.7156 C   0  0  2  0  0  0  0  0  0  0  0  0
    7.6816   -0.1249   21.3933 C   0  0  0  0  0  0  0  0  0  0  0  0
    8.3004    0.7617   20.8413 O   0  0  0  0  0  0  0  0  0  0  0  0
    6.5129   -0.6777   20.9136 N   0  0  0  0  0  0  0  0  0  0  0  0
    5.8564   -0.0904   19.8098 C   0  0  0  0  0  0  0  0  0  0  0  0
    6.3088   -0.3469   18.5397 C   0  0  0  0  0  0  0  0  0  0  0  0
    5.7714    0.1870   17.4161 N   0  0  0  0  0  0  0  0  0  0  0  0
    4.7629    1.0132   17.5768 C   0  0  0  0  0  0  0  0  0  0  0  0
    4.2057    1.3756   18.8376 C   0  0  0  0  0  0  0  0  0  0  0  0
    3.1289    2.2951   18.9437 C   0  0  0  0  0  0  0  0  0  0  0  0
    2.6079    2.6128   20.1694 C   0  0  0  0  0  0  0  0  0  0  0  0
    3.1543    2.0522   21.3458 C   0  0  0  0  0  0  0  0  0  0  0  0
    4.2120    1.1745   21.2728 C   0  0  0  0  0  0  0  0  0  0  0  0
    4.7588    0.8012   20.0076 C   0  0  0  0  0  0  0  0  0  0  0  0
    6.1323   -1.9172   21.5704 C   0  0  0  0  0  0  0  0  0  0  0  0
    7.3990   -2.2498   22.3705 C   0  0  2  0  0  0  0  0  0  0  0  0
    7.1920   -3.2391   23.5066 C   0  0  0  0  0  0  0  0  0  0  0  0
    9.5057   -0.8353   22.9824 C   0  0  0  0  0  0  0  0  0  0  0  0
   10.3649   -1.6153   22.1986 C   0  0  0  0  0  0  0  0  0  0  0  0
   11.7311   -1.5517   22.4002 C   0  0  0  0  0  0  0  0  0  0  0  0
   12.7677   -2.4839   21.3632 Cl  0  0  0  0  0  0  0  0  0  0  0  0
   12.2926   -0.7662   23.4063 C   0  0  0  0  0  0  0  0  0  0  0  0
   11.4490    0.0104   24.1758 C   0  0  0  0  0  0  0  0  0  0  0  0
   10.0757    0.0163   23.9371 C   0  0  0  0  0  0  0  0  0  0  0  0
    9.2646    1.0702   24.6272 C   0  0  0  0  0  0  0  0  0  0  0  0
    9.7862    1.9018   25.3562 O   0  0  0  0  0  0  0  0  0  0  0  0
    3.5497    4.6524   24.0557 H   0  0  0  0  0  0  0  0  0  0  0  0
    4.4472    3.1687   23.6568 H   0  0  0  0  0  0  0  0  0  0  0  0
    4.9007    4.1387   25.0805 H   0  0  0  0  0  0  0  0  0  0  0  0
    5.4794    6.0390   23.6026 H   0  0  0  0  0  0  0  0  0  0  0  0
    4.0286    5.5724   21.7141 H   0  0  0  0  0  0  0  0  0  0  0  0
    5.0064    4.1523   21.2619 H   0  0  0  0  0  0  0  0  0  0  0  0
    7.2305    4.5382   20.5636 H   0  0  0  0  0  0  0  0  0  0  0  0
    7.8100    6.2098   20.3984 H   0  0  0  0  0  0  0  0  0  0  0  0
    8.7845    4.9412   22.3618 H   0  0  0  0  0  0  0  0  0  0  0  0
    7.0656    7.4141   22.9266 H   0  0  0  0  0  0  0  0  0  0  0  0
    8.3183    6.7912   24.0478 H   0  0  0  0  0  0  0  0  0  0  0  0
    8.7599    7.3508   22.4231 H   0  0  0  0  0  0  0  0  0  0  0  0
    7.2269    4.7388   24.2690 H   0  0  0  0  0  0  0  0  0  0  0  0
    8.0967    2.9308   22.5738 H   0  0  0  0  0  0  0  0  0  0  0  0
    6.3679    2.6600   22.4564 H   0  0  0  0  0  0  0  0  0  0  0  0
    7.7282    2.9083   25.1853 H   0  0  0  0  0  0  0  0  0  0  0  0
    6.1891    2.0959   24.8380 H   0  0  0  0  0  0  0  0  0  0  0  0
    7.3027   -0.8816   24.7684 H   0  0  0  0  0  0  0  0  0  0  0  0
    6.2485    0.0495   23.6728 H   0  0  0  0  0  0  0  0  0  0  0  0
    7.1581   -1.0123   18.4028 H   0  0  0  0  0  0  0  0  0  0  0  0
    4.3325    1.4526   16.6772 H   0  0  0  0  0  0  0  0  0  0  0  0
    2.7310    2.7351   18.0321 H   0  0  0  0  0  0  0  0  0  0  0  0
    1.7693    3.2999   20.2448 H   0  0  0  0  0  0  0  0  0  0  0  0
    2.7347    2.3280   22.3117 H   0  0  0  0  0  0  0  0  0  0  0  0
    4.6312    0.7676   22.1896 H   0  0  0  0  0  0  0  0  0  0  0  0
    5.8968   -2.6979   20.8382 H   0  0  0  0  0  0  0  0  0  0  0  0
    5.2510   -1.8031   22.2233 H   0  0  0  0  0  0  0  0  0  0  0  0
    8.0742   -2.7120   21.6417 H   0  0  0  0  0  0  0  0  0  0  0  0
    6.8840   -4.2092   23.0976 H   0  0  0  0  0  0  0  0  0  0  0  0
    6.4149   -2.8966   24.2010 H   0  0  0  0  0  0  0  0  0  0  0  0
    8.1208   -3.3832   24.0692 H   0  0  0  0  0  0  0  0  0  0  0  0
    9.9843   -2.2475   21.4026 H   0  0  0  0  0  0  0  0  0  0  0  0
   13.3691   -0.7322   23.5438 H   0  0  0  0  0  0  0  0  0  0  0  0
   11.8315    0.6599   24.9549 H   0  0  0  0  0  0  0  0  0  0  0  0
  1  2  1  0
  2  3  1  0
  3  4  1  0
  4  5  1  0
  5  6  1  0
  6  7  1  0
  6  8  1  0
  8  9  1  0
  9 10  1  0
 10 11  1  0
 11 12  1  0
 13 12  1  1
 13 14  1  0
 14 15  2  0
 14 16  1  0
 16 17  1  0
 17 18  2  0
 18 19  1  0
 19 20  2  0
 20 21  1  0
 21 22  2  0
 22 23  1  0
 23 24  2  0
 24 25  1  0
 25 26  2  0
 16 27  1  0
 27 28  1  0
 28 29  1  0
 13 30  1  0
 30 31  2  0
 31 32  1  0
 32 33  1  0
 32 34  2  0
 34 35  1  0
 35 36  2  0
 36 37  1  0
 37 38  2  0
  8  2  1  0
 37 11  1  0
 28 13  1  0
 36 30  1  0
 26 17  1  0
 26 21  1  0
  1 39  1  0
  1 40  1  0
  1 41  1  0
  2 42  1  1
  3 43  1  0
  3 44  1  0
  5 45  1  0
  5 46  1  0
  6 47  1  6
  7 48  1  0
  7 49  1  0
  7 50  1  0
  8 51  1  0
  9 52  1  0
  9 53  1  0
 10 54  1  0
 10 55  1  0
 12 56  1  0
 12 57  1  0
 18 58  1  0
 20 59  1  0
 22 60  1  0
 23 61  1  0
 24 62  1  0
 25 63  1  0
 27 64  1  0
 27 65  1  0
 28 66  1  6
 29 67  1  0
 29 68  1  0
 29 69  1  0
 31 70  1  0
 34 71  1  0
 35 72  1  0
M  CHG  1   8   1
M  END
>  <RMSD>  (164) 
0.17969461138992687

$$$$

     RDKit          3D

 60 65  0  0  0  0  0  0  0  0999 V2000
   -6.8346    2.6844  -22.8108 C   0  0  0  0  0  0  0  0  0  0  0  0
   -7.4038    1.6052  -23.5955 N   0  0  0  0  0  0  0  0  0  0  0  0
   -6.9247    1.3133  -24.8255 C   0  0  0  0  0  0  0  0  0  0  0  0
   -6.1390    2.0355  -25.4215 O   0  0  0  0  0  0  0  0  0  0  0  0
   -7.3661    0.0089  -25.4674 C   0  0  0  0  0  0  0  0  0  0  0  0
   -8.1765   -0.9061  -24.7017 N   0  0  0  0  0  0  0  0  0  0  0  0
   -7.5729   -2.1044  -24.1393 C   0  0  0  0  0  0  0  0  0  0  0  0
   -8.2360   -2.5208  -22.7963 C   0  0  2  0  0  0  0  0  0  0  0  0
   -7.9056   -1.4719  -21.7040 C   0  0  0  0  0  0  0  0  0  0  0  0
   -8.4539   -0.4061  -21.5038 O   0  0  0  0  0  0  0  0  0  0  0  0
   -6.8358   -1.9444  -20.9747 N   0  0  0  0  0  0  0  0  0  0  0  0
   -6.1817   -1.1420  -20.0020 C   0  0  0  0  0  0  0  0  0  0  0  0
   -6.5458   -1.2441  -18.6850 C   0  0  0  0  0  0  0  0  0  0  0  0
   -6.0054   -0.5132  -17.6781 N   0  0  0  0  0  0  0  0  0  0  0  0
   -5.0699    0.3512  -17.9981 C   0  0  0  0  0  0  0  0  0  0  0  0
   -4.5711    0.5409  -19.3204 C   0  0  0  0  0  0  0  0  0  0  0  0
   -3.5595    1.4938  -19.6327 C   0  0  0  0  0  0  0  0  0  0  0  0
   -3.1040    1.6242  -20.9165 C   0  0  0  0  0  0  0  0  0  0  0  0
   -3.6216    0.8107  -21.9531 C   0  0  0  0  0  0  0  0  0  0  0  0
   -4.6102   -0.1024  -21.6795 C   0  0  0  0  0  0  0  0  0  0  0  0
   -5.1250   -0.2483  -20.3604 C   0  0  0  0  0  0  0  0  0  0  0  0
   -6.3540   -3.2400  -21.4225 C   0  0  0  0  0  0  0  0  0  0  0  0
   -7.5620   -3.7831  -22.1944 C   0  0  2  0  0  0  0  0  0  0  0  0
   -7.2392   -4.9110  -23.1652 C   0  0  0  0  0  0  0  0  0  0  0  0
   -9.7285   -2.6185  -23.0288 C   0  0  0  0  0  0  0  0  0  0  0  0
  -10.5445   -3.5153  -22.3229 C   0  0  0  0  0  0  0  0  0  0  0  0
  -11.9207   -3.4558  -22.4564 C   0  0  0  0  0  0  0  0  0  0  0  0
  -12.9088   -4.5341  -21.5081 Cl  0  0  0  0  0  0  0  0  0  0  0  0
  -12.5322   -2.5297  -23.3046 C   0  0  0  0  0  0  0  0  0  0  0  0
  -11.7294   -1.6525  -24.0122 C   0  0  0  0  0  0  0  0  0  0  0  0
  -10.3389   -1.6845  -23.8820 C   0  0  0  0  0  0  0  0  0  0  0  0
   -9.5277   -0.6652  -24.6306 C   0  0  0  0  0  0  0  0  0  0  0  0
  -10.0170    0.3312  -25.1407 O   0  0  0  0  0  0  0  0  0  0  0  0
   -6.3516   -0.5790  -26.4350 C   0  0  0  0  0  0  0  0  0  0  0  0
   -7.5698    0.0828  -26.9693 C   0  0  0  0  0  0  0  0  0  0  0  0
   -5.7721    2.5003  -22.6103 H   0  0  0  0  0  0  0  0  0  0  0  0
   -7.3578    2.7141  -21.8519 H   0  0  0  0  0  0  0  0  0  0  0  0
   -6.9237    3.6591  -23.3042 H   0  0  0  0  0  0  0  0  0  0  0  0
   -8.2199    1.1401  -23.2281 H   0  0  0  0  0  0  0  0  0  0  0  0
   -6.5121   -1.8931  -23.9875 H   0  0  0  0  0  0  0  0  0  0  0  0
   -7.6542   -2.9421  -24.8494 H   0  0  0  0  0  0  0  0  0  0  0  0
   -7.3274   -1.9425  -18.3945 H   0  0  0  0  0  0  0  0  0  0  0  0
   -4.6524    0.9547  -17.1897 H   0  0  0  0  0  0  0  0  0  0  0  0
   -3.1676    2.1216  -18.8330 H   0  0  0  0  0  0  0  0  0  0  0  0
   -2.3433    2.3613  -21.1596 H   0  0  0  0  0  0  0  0  0  0  0  0
   -3.2644    0.9315  -22.9734 H   0  0  0  0  0  0  0  0  0  0  0  0
   -5.0186   -0.7152  -22.4795 H   0  0  0  0  0  0  0  0  0  0  0  0
   -6.0832   -3.8649  -20.5667 H   0  0  0  0  0  0  0  0  0  0  0  0
   -5.4680   -3.1769  -22.0825 H   0  0  0  0  0  0  0  0  0  0  0  0
   -8.2420   -4.1735  -21.4349 H   0  0  0  0  0  0  0  0  0  0  0  0
   -8.1113   -5.1817  -23.7706 H   0  0  0  0  0  0  0  0  0  0  0  0
   -6.9037   -5.8114  -22.6387 H   0  0  0  0  0  0  0  0  0  0  0  0
   -6.4466   -4.6171  -23.8616 H   0  0  0  0  0  0  0  0  0  0  0  0
  -10.1211   -4.2681  -21.6649 H   0  0  0  0  0  0  0  0  0  0  0  0
  -13.6175   -2.4963  -23.3790 H   0  0  0  0  0  0  0  0  0  0  0  0
  -12.1744   -0.9138  -24.6707 H   0  0  0  0  0  0  0  0  0  0  0  0
   -5.4091   -0.0568  -26.5530 H   0  0  0  0  0  0  0  0  0  0  0  0
   -6.2947   -1.6608  -26.5059 H   0  0  0  0  0  0  0  0  0  0  0  0
   -8.3390   -0.5551  -27.3911 H   0  0  0  0  0  0  0  0  0  0  0  0
   -7.4351    1.0448  -27.4542 H   0  0  0  0  0  0  0  0  0  0  0  0
  1  2  1  0
  2  3  1  0
  3  4  2  0
  3  5  1  0
  5  6  1  0
  6  7  1  0
  8  7  1  6
  8  9  1  0
  9 10  2  0
  9 11  1  0
 11 12  1  0
 12 13  2  0
 13 14  1  0
 14 15  2  0
 15 16  1  0
 16 17  2  0
 17 18  1  0
 18 19  2  0
 19 20  1  0
 20 21  2  0
 11 22  1  0
 22 23  1  0
 23 24  1  0
  8 25  1  0
 25 26  2  0
 26 27  1  0
 27 28  1  0
 27 29  2  0
 29 30  1  0
 30 31  2  0
 31 32  1  0
 32 33  2  0
  5 34  1  0
 34 35  1  0
 35  5  1  0
 32  6  1  0
 23  8  1  0
 31 25  1  0
 21 12  1  0
 21 16  1  0
  1 36  1  0
  1 37  1  0
  1 38  1  0
  2 39  1  0
  7 40  1  0
  7 41  1  0
 13 42  1  0
 15 43  1  0
 17 44  1  0
 18 45  1  0
 19 46  1  0
 20 47  1  0
 22 48  1  0
 22 49  1  0
 23 50  1  1
 24 51  1  0
 24 52  1  0
 24 53  1  0
 26 54  1  0
 29 55  1  0
 30 56  1  0
 34 57  1  0
 34 58  1  0
 35 59  1  0
 35 60  1  0
M  END
>  <RMSD>  (165) 
0.051676736108529193

$$$$

     RDKit          3D

 60 65  0  0  0  0  0  0  0  0999 V2000
   -6.8346    2.6844  -22.8108 C   0  0  0  0  0  0  0  0  0  0  0  0
   -7.4038    1.6052  -23.5955 N   0  0  0  0  0  0  0  0  0  0  0  0
   -6.9247    1.3133  -24.8255 C   0  0  0  0  0  0  0  0  0  0  0  0
   -6.1390    2.0355  -25.4215 O   0  0  0  0  0  0  0  0  0  0  0  0
   -7.3661    0.0089  -25.4674 C   0  0  0  0  0  0  0  0  0  0  0  0
   -8.1765   -0.9061  -24.7017 N   0  0  0  0  0  0  0  0  0  0  0  0
   -7.5729   -2.1044  -24.1393 C   0  0  0  0  0  0  0  0  0  0  0  0
   -8.2360   -2.5208  -22.7963 C   0  0  2  0  0  0  0  0  0  0  0  0
   -7.9056   -1.4719  -21.7040 C   0  0  0  0  0  0  0  0  0  0  0  0
   -8.4539   -0.4061  -21.5038 O   0  0  0  0  0  0  0  0  0  0  0  0
   -6.8358   -1.9444  -20.9747 N   0  0  0  0  0  0  0  0  0  0  0  0
   -6.1817   -1.1420  -20.0020 C   0  0  0  0  0  0  0  0  0  0  0  0
   -6.5458   -1.2441  -18.6850 C   0  0  0  0  0  0  0  0  0  0  0  0
   -6.0054   -0.5132  -17.6781 N   0  0  0  0  0  0  0  0  0  0  0  0
   -5.0699    0.3512  -17.9981 C   0  0  0  0  0  0  0  0  0  0  0  0
   -4.5711    0.5409  -19.3204 C   0  0  0  0  0  0  0  0  0  0  0  0
   -3.5595    1.4938  -19.6327 C   0  0  0  0  0  0  0  0  0  0  0  0
   -3.1040    1.6242  -20.9165 C   0  0  0  0  0  0  0  0  0  0  0  0
   -3.6216    0.8107  -21.9531 C   0  0  0  0  0  0  0  0  0  0  0  0
   -4.6102   -0.1024  -21.6795 C   0  0  0  0  0  0  0  0  0  0  0  0
   -5.1250   -0.2483  -20.3604 C   0  0  0  0  0  0  0  0  0  0  0  0
   -6.3540   -3.2400  -21.4225 C   0  0  0  0  0  0  0  0  0  0  0  0
   -7.5620   -3.7831  -22.1944 C   0  0  2  0  0  0  0  0  0  0  0  0
   -7.2392   -4.9110  -23.1652 C   0  0  0  0  0  0  0  0  0  0  0  0
   -9.7285   -2.6185  -23.0288 C   0  0  0  0  0  0  0  0  0  0  0  0
  -10.5445   -3.5153  -22.3229 C   0  0  0  0  0  0  0  0  0  0  0  0
  -11.9207   -3.4558  -22.4564 C   0  0  0  0  0  0  0  0  0  0  0  0
  -12.9088   -4.5341  -21.5081 Cl  0  0  0  0  0  0  0  0  0  0  0  0
  -12.5322   -2.5297  -23.3046 C   0  0  0  0  0  0  0  0  0  0  0  0
  -11.7294   -1.6525  -24.0122 C   0  0  0  0  0  0  0  0  0  0  0  0
  -10.3389   -1.6845  -23.8820 C   0  0  0  0  0  0  0  0  0  0  0  0
   -9.5277   -0.6652  -24.6306 C   0  0  0  0  0  0  0  0  0  0  0  0
  -10.0170    0.3312  -25.1407 O   0  0  0  0  0  0  0  0  0  0  0  0
   -6.3516   -0.5790  -26.4350 C   0  0  0  0  0  0  0  0  0  0  0  0
   -7.5698    0.0828  -26.9693 C   0  0  0  0  0  0  0  0  0  0  0  0
   -5.7721    2.5003  -22.6103 H   0  0  0  0  0  0  0  0  0  0  0  0
   -7.3578    2.7141  -21.8519 H   0  0  0  0  0  0  0  0  0  0  0  0
   -6.9237    3.6591  -23.3042 H   0  0  0  0  0  0  0  0  0  0  0  0
   -8.2199    1.1401  -23.2281 H   0  0  0  0  0  0  0  0  0  0  0  0
   -6.5121   -1.8931  -23.9875 H   0  0  0  0  0  0  0  0  0  0  0  0
   -7.6542   -2.9421  -24.8494 H   0  0  0  0  0  0  0  0  0  0  0  0
   -7.3274   -1.9425  -18.3945 H   0  0  0  0  0  0  0  0  0  0  0  0
   -4.6524    0.9547  -17.1897 H   0  0  0  0  0  0  0  0  0  0  0  0
   -3.1676    2.1216  -18.8330 H   0  0  0  0  0  0  0  0  0  0  0  0
   -2.3433    2.3613  -21.1596 H   0  0  0  0  0  0  0  0  0  0  0  0
   -3.2644    0.9315  -22.9734 H   0  0  0  0  0  0  0  0  0  0  0  0
   -5.0186   -0.7152  -22.4795 H   0  0  0  0  0  0  0  0  0  0  0  0
   -6.0832   -3.8649  -20.5667 H   0  0  0  0  0  0  0  0  0  0  0  0
   -5.4680   -3.1769  -22.0825 H   0  0  0  0  0  0  0  0  0  0  0  0
   -8.2420   -4.1735  -21.4349 H   0  0  0  0  0  0  0  0  0  0  0  0
   -8.1113   -5.1817  -23.7706 H   0  0  0  0  0  0  0  0  0  0  0  0
   -6.9037   -5.8114  -22.6387 H   0  0  0  0  0  0  0  0  0  0  0  0
   -6.4466   -4.6171  -23.8616 H   0  0  0  0  0  0  0  0  0  0  0  0
  -10.1211   -4.2681  -21.6649 H   0  0  0  0  0  0  0  0  0  0  0  0
  -13.6175   -2.4963  -23.3790 H   0  0  0  0  0  0  0  0  0  0  0  0
  -12.1744   -0.9138  -24.6707 H   0  0  0  0  0  0  0  0  0  0  0  0
   -5.4091   -0.0568  -26.5530 H   0  0  0  0  0  0  0  0  0  0  0  0
   -6.2947   -1.6608  -26.5059 H   0  0  0  0  0  0  0  0  0  0  0  0
   -8.3390   -0.5551  -27.3911 H   0  0  0  0  0  0  0  0  0  0  0  0
   -7.4351    1.0448  -27.4542 H   0  0  0  0  0  0  0  0  0  0  0  0
  1  2  1  0
  2  3  1  0
  3  4  2  0
  3  5  1  0
  5  6  1  0
  6  7  1  0
  8  7  1  6
  8  9  1  0
  9 10  2  0
  9 11  1  0
 11 12  1  0
 12 13  2  0
 13 14  1  0
 14 15  2  0
 15 16  1  0
 16 17  2  0
 17 18  1  0
 18 19  2  0
 19 20  1  0
 20 21  2  0
 11 22  1  0
 22 23  1  0
 23 24  1  0
  8 25  1  0
 25 26  2  0
 26 27  1  0
 27 28  1  0
 27 29  2  0
 29 30  1  0
 30 31  2  0
 31 32  1  0
 32 33  2  0
  5 34  1  0
 34 35  1  0
 35  5  1  0
 32  6  1  0
 23  8  1  0
 31 25  1  0
 21 12  1  0
 21 16  1  0
  1 36  1  0
  1 37  1  0
  1 38  1  0
  2 39  1  0
  7 40  1  0
  7 41  1  0
 13 42  1  0
 15 43  1  0
 17 44  1  0
 18 45  1  0
 19 46  1  0
 20 47  1  0
 22 48  1  0
 22 49  1  0
 23 50  1  1
 24 51  1  0
 24 52  1  0
 24 53  1  0
 26 54  1  0
 29 55  1  0
 30 56  1  0
 34 57  1  0
 34 58  1  0
 35 59  1  0
 35 60  1  0
M  END
>  <RMSD>  (166) 
0.051676736108529193

$$$$

     RDKit          3D

 55 60  0  0  0  0  0  0  0  0999 V2000
   -7.2318   -5.0323  -23.0321 C   0  0  0  0  0  0  0  0  0  0  0  0
   -7.5580   -3.8758  -22.0996 C   0  0  1  0  0  0  0  0  0  0  0  0
   -6.3510   -3.2972  -21.3533 C   0  0  0  0  0  0  0  0  0  0  0  0
   -6.8138   -1.9758  -20.9717 N   0  0  0  0  0  0  0  0  0  0  0  0
   -6.1776   -1.1527  -20.0068 C   0  0  0  0  0  0  0  0  0  0  0  0
   -6.5448   -1.2445  -18.6882 C   0  0  0  0  0  0  0  0  0  0  0  0
   -6.0136   -0.5035  -17.6839 N   0  0  0  0  0  0  0  0  0  0  0  0
   -5.0734    0.3597  -17.9994 C   0  0  0  0  0  0  0  0  0  0  0  0
   -4.5722    0.5390  -19.3220 C   0  0  0  0  0  0  0  0  0  0  0  0
   -3.5558    1.4892  -19.6294 C   0  0  0  0  0  0  0  0  0  0  0  0
   -3.1035    1.6267  -20.9146 C   0  0  0  0  0  0  0  0  0  0  0  0
   -3.6302    0.8189  -21.9497 C   0  0  0  0  0  0  0  0  0  0  0  0
   -4.6239   -0.0899  -21.6846 C   0  0  0  0  0  0  0  0  0  0  0  0
   -5.1248   -0.2482  -20.3625 C   0  0  0  0  0  0  0  0  0  0  0  0
   -7.8815   -1.5307  -21.7229 C   0  0  0  0  0  0  0  0  0  0  0  0
   -8.4107   -0.4502  -21.5833 O   0  0  0  0  0  0  0  0  0  0  0  0
   -8.2330   -2.6376  -22.7527 C   0  0  1  0  0  0  0  0  0  0  0  0
   -7.5897   -2.2868  -24.1211 C   0  0  0  0  0  0  0  0  0  0  0  0
   -8.1619   -1.0901  -24.7120 N   0  0  0  0  0  0  0  0  0  0  0  0
   -7.3164   -0.2857  -25.5729 C   0  0  0  0  0  0  0  0  0  0  0  0
   -6.7298    0.8990  -24.8813 C   0  0  0  0  0  0  0  0  0  0  0  0
   -7.3454    1.6824  -23.9720 C   0  0  0  0  0  0  0  0  0  0  0  0
   -6.4830    2.6868  -23.6419 O   0  0  0  0  0  0  0  0  0  0  0  0
   -5.3810    2.4375  -24.3738 C   0  0  0  0  0  0  0  0  0  0  0  0
   -5.4519    1.3852  -25.1210 N   0  0  0  0  0  0  0  0  0  0  0  0
   -9.5003   -0.8183  -24.6527 C   0  0  0  0  0  0  0  0  0  0  0  0
   -9.9944    0.1430  -25.2285 O   0  0  0  0  0  0  0  0  0  0  0  0
  -10.3293   -1.7836  -23.8449 C   0  0  0  0  0  0  0  0  0  0  0  0
  -11.7200   -1.7250  -23.9717 C   0  0  0  0  0  0  0  0  0  0  0  0
  -12.5327   -2.5796  -23.2528 C   0  0  0  0  0  0  0  0  0  0  0  0
  -11.9206   -3.5021  -22.4123 C   0  0  0  0  0  0  0  0  0  0  0  0
  -12.6908   -4.3361  -21.6952 F   0  0  0  0  0  0  0  0  0  0  0  0
  -10.5510   -3.5891  -22.2614 C   0  0  0  0  0  0  0  0  0  0  0  0
   -9.7290   -2.7120  -22.9760 C   0  0  0  0  0  0  0  0  0  0  0  0
   -6.4527   -4.7567  -23.7465 H   0  0  0  0  0  0  0  0  0  0  0  0
   -6.8751   -5.9046  -22.4781 H   0  0  0  0  0  0  0  0  0  0  0  0
   -8.1041   -5.3427  -23.6157 H   0  0  0  0  0  0  0  0  0  0  0  0
   -8.2313   -4.2493  -21.3239 H   0  0  0  0  0  0  0  0  0  0  0  0
   -6.0905   -3.8829  -20.4697 H   0  0  0  0  0  0  0  0  0  0  0  0
   -5.4662   -3.2760  -22.0127 H   0  0  0  0  0  0  0  0  0  0  0  0
   -7.3283   -1.9388  -18.3922 H   0  0  0  0  0  0  0  0  0  0  0  0
   -4.6528    0.9649  -17.1929 H   0  0  0  0  0  0  0  0  0  0  0  0
   -3.1526    2.1110  -18.8324 H   0  0  0  0  0  0  0  0  0  0  0  0
   -2.3319    2.3557  -21.1516 H   0  0  0  0  0  0  0  0  0  0  0  0
   -3.2651    0.9285  -22.9681 H   0  0  0  0  0  0  0  0  0  0  0  0
   -5.0394   -0.7024  -22.4804 H   0  0  0  0  0  0  0  0  0  0  0  0
   -7.7249   -3.1233  -24.8204 H   0  0  0  0  0  0  0  0  0  0  0  0
   -6.5151   -2.1206  -23.9916 H   0  0  0  0  0  0  0  0  0  0  0  0
   -7.9167    0.0468  -26.4258 H   0  0  0  0  0  0  0  0  0  0  0  0
   -6.5061   -0.9094  -25.9586 H   0  0  0  0  0  0  0  0  0  0  0  0
   -8.3220    1.6758  -23.5127 H   0  0  0  0  0  0  0  0  0  0  0  0
   -4.5417    3.1160  -24.2632 H   0  0  0  0  0  0  0  0  0  0  0  0
  -12.1555   -0.9978  -24.6465 H   0  0  0  0  0  0  0  0  0  0  0  0
  -13.6178   -2.5417  -23.3196 H   0  0  0  0  0  0  0  0  0  0  0  0
  -10.1480   -4.3419  -21.5918 H   0  0  0  0  0  0  0  0  0  0  0  0
  1  2  1  0
  2  3  1  0
  3  4  1  0
  4  5  1  0
  5  6  2  0
  6  7  1  0
  7  8  2  0
  8  9  1  0
  9 10  2  0
 10 11  1  0
 11 12  2  0
 12 13  1  0
 13 14  2  0
  4 15  1  0
 15 16  2  0
 15 17  1  0
 17 18  1  6
 18 19  1  0
 19 20  1  0
 20 21  1  0
 21 22  2  0
 22 23  1  0
 23 24  1  0
 24 25  2  0
 19 26  1  0
 26 27  2  0
 26 28  1  0
 28 29  2  0
 29 30  1  0
 30 31  2  0
 31 32  1  0
 31 33  1  0
 33 34  2  0
 17  2  1  0
 25 21  1  0
 34 28  1  0
 14  5  1  0
 34 17  1  0
 14  9  1  0
  1 35  1  0
  1 36  1  0
  1 37  1  0
  2 38  1  1
  3 39  1  0
  3 40  1  0
  6 41  1  0
  8 42  1  0
 10 43  1  0
 11 44  1  0
 12 45  1  0
 13 46  1  0
 18 47  1  0
 18 48  1  0
 20 49  1  0
 20 50  1  0
 22 51  1  0
 24 52  1  0
 29 53  1  0
 30 54  1  0
 33 55  1  0
M  END
>  <RMSD>  (167) 
0.055379102243114785

$$$$

     RDKit          3D

 65 70  0  0  0  0  0  0  0  0999 V2000
    6.1130    4.2694   22.3508 C   0  0  0  0  0  0  0  0  0  0  0  0
    6.7171    3.2600   23.1981 N   0  0  0  0  0  0  0  0  0  0  0  0
    6.2209    3.0173   24.4282 C   0  0  0  0  0  0  0  0  0  0  0  0
    5.3370    3.6981   24.9424 O   0  0  0  0  0  0  0  0  0  0  0  0
    6.7833    1.8140   25.1974 C   0  0  0  0  0  0  0  0  0  0  0  0
    7.6797    0.9309   24.4807 N   0  0  0  0  0  0  0  0  0  0  0  0
    7.2058   -0.3912   24.1132 C   0  0  0  0  0  0  0  0  0  0  0  0
    7.9194   -0.9197   22.8439 C   0  0  2  0  0  0  0  0  0  0  0  0
    7.5348   -0.0317   21.6288 C   0  0  0  0  0  0  0  0  0  0  0  0
    8.0008    1.0477   21.3198 O   0  0  0  0  0  0  0  0  0  0  0  0
    6.5247   -0.6683   20.9381 N   0  0  0  0  0  0  0  0  0  0  0  0
    5.8822   -0.0600   19.8265 C   0  0  0  0  0  0  0  0  0  0  0  0
    6.3073   -0.3427   18.5546 C   0  0  0  0  0  0  0  0  0  0  0  0
    5.7642    0.1790   17.4238 N   0  0  0  0  0  0  0  0  0  0  0  0
    4.7605    1.0127   17.5701 C   0  0  0  0  0  0  0  0  0  0  0  0
    4.2039    1.3856   18.8287 C   0  0  0  0  0  0  0  0  0  0  0  0
    3.1164    2.2951   18.9417 C   0  0  0  0  0  0  0  0  0  0  0  0
    2.6033    2.6140   20.1698 C   0  0  0  0  0  0  0  0  0  0  0  0
    3.1455    2.0386   21.3427 C   0  0  0  0  0  0  0  0  0  0  0  0
    4.2046    1.1685   21.2597 C   0  0  0  0  0  0  0  0  0  0  0  0
    4.7716    0.8265   20.0005 C   0  0  0  0  0  0  0  0  0  0  0  0
    6.1271   -1.9383   21.5152 C   0  0  0  0  0  0  0  0  0  0  0  0
    7.3438   -2.2917   22.3805 C   0  0  2  0  0  0  0  0  0  0  0  0
    7.0391   -3.3246   23.4796 C   0  0  0  0  0  0  0  0  0  0  0  0
    6.7264   -4.6519   22.9767 N   0  0  0  0  0  0  0  0  0  0  0  0
    5.4905   -5.0839   22.6639 C   0  0  0  0  0  0  0  0  0  0  0  0
    4.4265   -4.3288   23.0033 N   0  0  0  0  0  0  0  0  0  0  0  0
    3.2604   -4.8728   22.6781 C   0  0  0  0  0  0  0  0  0  0  0  0
    3.0630   -6.0146   22.0261 N   0  0  0  0  0  0  0  0  0  0  0  0
    4.1956   -6.6682   21.7424 C   0  0  0  0  0  0  0  0  0  0  0  0
    5.4238   -6.2799   22.0282 N   0  0  0  0  0  0  0  0  0  0  0  0
    9.4106   -0.8514   23.1081 C   0  0  0  0  0  0  0  0  0  0  0  0
   10.3167   -1.7747   22.5743 C   0  0  0  0  0  0  0  0  0  0  0  0
   11.6782   -1.5814   22.7283 C   0  0  0  0  0  0  0  0  0  0  0  0
   12.7824   -2.7207   22.0068 Cl  0  0  0  0  0  0  0  0  0  0  0  0
   12.1876   -0.4858   23.4271 C   0  0  0  0  0  0  0  0  0  0  0  0
   11.2970    0.4189   23.9754 C   0  0  0  0  0  0  0  0  0  0  0  0
    9.9222    0.2419   23.8266 C   0  0  0  0  0  0  0  0  0  0  0  0
    9.0071    1.2588   24.4464 C   0  0  0  0  0  0  0  0  0  0  0  0
    9.4068    2.3346   24.8770 O   0  0  0  0  0  0  0  0  0  0  0  0
    6.1375    5.2582   22.8224 H   0  0  0  0  0  0  0  0  0  0  0  0
    6.6711    4.2953   21.4110 H   0  0  0  0  0  0  0  0  0  0  0  0
    5.0675    4.0160   22.1338 H   0  0  0  0  0  0  0  0  0  0  0  0
    7.5205    2.7550   22.8503 H   0  0  0  0  0  0  0  0  0  0  0  0
    5.9111    1.2420   25.5281 H   0  0  0  0  0  0  0  0  0  0  0  0
    7.2805    2.1995   26.0947 H   0  0  0  0  0  0  0  0  0  0  0  0
    7.3685   -1.0955   24.9424 H   0  0  0  0  0  0  0  0  0  0  0  0
    6.1289   -0.3171   23.9235 H   0  0  0  0  0  0  0  0  0  0  0  0
    7.1399   -1.0275   18.4056 H   0  0  0  0  0  0  0  0  0  0  0  0
    4.3390    1.4384   16.6582 H   0  0  0  0  0  0  0  0  0  0  0  0
    2.7160    2.7370   18.0316 H   0  0  0  0  0  0  0  0  0  0  0  0
    1.7851    3.3239   20.2595 H   0  0  0  0  0  0  0  0  0  0  0  0
    2.7487    2.3147   22.3179 H   0  0  0  0  0  0  0  0  0  0  0  0
    4.6239    0.7322   22.1624 H   0  0  0  0  0  0  0  0  0  0  0  0
    5.9180   -2.6761   20.7367 H   0  0  0  0  0  0  0  0  0  0  0  0
    5.2158   -1.8526   22.1297 H   0  0  0  0  0  0  0  0  0  0  0  0
    8.0899   -2.7202   21.7031 H   0  0  0  0  0  0  0  0  0  0  0  0
    7.9162   -3.4267   24.1240 H   0  0  0  0  0  0  0  0  0  0  0  0
    6.1882   -3.0028   24.0931 H   0  0  0  0  0  0  0  0  0  0  0  0
    7.4635   -5.2554   22.6433 H   0  0  0  0  0  0  0  0  0  0  0  0
    2.3579   -4.3387   22.9778 H   0  0  0  0  0  0  0  0  0  0  0  0
    4.0662   -7.6191   21.2242 H   0  0  0  0  0  0  0  0  0  0  0  0
    9.9685   -2.6498   22.0377 H   0  0  0  0  0  0  0  0  0  0  0  0
   13.2601   -0.3512   23.5246 H   0  0  0  0  0  0  0  0  0  0  0  0
   11.6399    1.2882   24.5264 H   0  0  0  0  0  0  0  0  0  0  0  0
  1  2  1  0
  2  3  1  0
  3  4  2  0
  3  5  1  0
  5  6  1  0
  6  7  1  0
  8  7  1  1
  8  9  1  0
  9 10  2  0
  9 11  1  0
 11 12  1  0
 12 13  2  0
 13 14  1  0
 14 15  2  0
 15 16  1  0
 16 17  2  0
 17 18  1  0
 18 19  2  0
 19 20  1  0
 20 21  2  0
 11 22  1  0
 22 23  1  0
 23 24  1  0
 24 25  1  0
 25 26  1  0
 26 27  2  0
 27 28  1  0
 28 29  2  0
 29 30  1  0
 30 31  2  0
  8 32  1  0
 32 33  2  0
 33 34  1  0
 34 35  1  0
 34 36  2  0
 36 37  1  0
 37 38  2  0
 38 39  1  0
 39 40  2  0
 39  6  1  0
 23  8  1  0
 31 26  1  0
 38 32  1  0
 21 12  1  0
 21 16  1  0
  1 41  1  0
  1 42  1  0
  1 43  1  0
  2 44  1  0
  5 45  1  0
  5 46  1  0
  7 47  1  0
  7 48  1  0
 13 49  1  0
 15 50  1  0
 17 51  1  0
 18 52  1  0
 19 53  1  0
 20 54  1  0
 22 55  1  0
 22 56  1  0
 23 57  1  6
 24 58  1  0
 24 59  1  0
 25 60  1  0
 28 61  1  0
 30 62  1  0
 33 63  1  0
 36 64  1  0
 37 65  1  0
M  END
>  <RMSD>  (168) 
0.17487316769399214

$$$$

     RDKit          3D

 63 68  0  0  0  0  0  0  0  0999 V2000
   -6.7759    2.5698  -23.1883 C   0  0  0  0  0  0  0  0  0  0  0  0
   -7.3079    1.3657  -23.7939 N   0  0  0  0  0  0  0  0  0  0  0  0
   -6.8486    0.9929  -25.0061 C   0  0  0  0  0  0  0  0  0  0  0  0
   -6.0435    1.6571  -25.6490 O   0  0  0  0  0  0  0  0  0  0  0  0
   -7.3862   -0.3147  -25.5991 C   0  0  0  0  0  0  0  0  0  0  0  0
   -8.1811   -1.1289  -24.7073 N   0  0  0  0  0  0  0  0  0  0  0  0
   -7.5844   -2.3056  -24.1180 C   0  0  0  0  0  0  0  0  0  0  0  0
   -8.1975   -2.6612  -22.7387 C   0  0  2  0  0  0  0  0  0  0  0  0
   -7.8436   -1.5513  -21.7184 C   0  0  0  0  0  0  0  0  0  0  0  0
   -8.3379   -0.4445  -21.6150 O   0  0  0  0  0  0  0  0  0  0  0  0
   -6.8023   -1.9965  -20.9450 N   0  0  0  0  0  0  0  0  0  0  0  0
   -6.1729   -1.1534  -19.9946 C   0  0  0  0  0  0  0  0  0  0  0  0
   -6.5485   -1.2356  -18.6798 C   0  0  0  0  0  0  0  0  0  0  0  0
   -6.0150   -0.4952  -17.6767 N   0  0  0  0  0  0  0  0  0  0  0  0
   -5.0734    0.3590  -18.0051 C   0  0  0  0  0  0  0  0  0  0  0  0
   -4.5812    0.5439  -19.3309 C   0  0  0  0  0  0  0  0  0  0  0  0
   -3.5594    1.4868  -19.6315 C   0  0  0  0  0  0  0  0  0  0  0  0
   -3.0991    1.6193  -20.9137 C   0  0  0  0  0  0  0  0  0  0  0  0
   -3.6285    0.8212  -21.9555 C   0  0  0  0  0  0  0  0  0  0  0  0
   -4.6248   -0.0883  -21.6918 C   0  0  0  0  0  0  0  0  0  0  0  0
   -5.1370   -0.2418  -20.3696 C   0  0  0  0  0  0  0  0  0  0  0  0
   -6.2847   -3.2909  -21.3262 C   0  0  0  0  0  0  0  0  0  0  0  0
   -7.4407   -3.8884  -22.1428 C   0  0  2  0  0  0  0  0  0  0  0  0
   -6.9385   -4.9060  -23.1816 C   0  0  0  0  0  0  0  0  0  0  0  0
   -6.4312   -6.1262  -22.5749 N   0  0  0  0  0  0  0  0  0  0  0  0
   -5.2345   -6.3627  -21.9765 C   0  0  0  0  0  0  0  0  0  0  0  0
   -5.3273   -7.5946  -21.3652 C   0  0  0  0  0  0  0  0  0  0  0  0
   -6.6464   -8.0148  -21.6348 C   0  0  0  0  0  0  0  0  0  0  0  0
   -7.2978   -7.1153  -22.3534 N   0  0  0  0  0  0  0  0  0  0  0  0
   -9.7026   -2.7549  -22.9347 C   0  0  0  0  0  0  0  0  0  0  0  0
  -10.5242   -3.6318  -22.2122 C   0  0  0  0  0  0  0  0  0  0  0  0
  -11.9018   -3.5773  -22.3713 C   0  0  0  0  0  0  0  0  0  0  0  0
  -12.9130   -4.6738  -21.4699 Cl  0  0  0  0  0  0  0  0  0  0  0  0
  -12.5106   -2.6579  -23.2273 C   0  0  0  0  0  0  0  0  0  0  0  0
  -11.7078   -1.7998  -23.9501 C   0  0  0  0  0  0  0  0  0  0  0  0
  -10.3225   -1.8557  -23.8235 C   0  0  0  0  0  0  0  0  0  0  0  0
   -9.5323   -0.9375  -24.7070 C   0  0  0  0  0  0  0  0  0  0  0  0
  -10.0533   -0.0666  -25.3928 O   0  0  0  0  0  0  0  0  0  0  0  0
   -5.7107    2.4473  -22.9552 H   0  0  0  0  0  0  0  0  0  0  0  0
   -7.3227    2.7674  -22.2634 H   0  0  0  0  0  0  0  0  0  0  0  0
   -6.8815    3.4282  -23.8619 H   0  0  0  0  0  0  0  0  0  0  0  0
   -7.8286    0.7208  -23.2021 H   0  0  0  0  0  0  0  0  0  0  0  0
   -6.5192   -0.8881  -25.9391 H   0  0  0  0  0  0  0  0  0  0  0  0
   -7.9797   -0.0652  -26.4869 H   0  0  0  0  0  0  0  0  0  0  0  0
   -6.5133   -2.1062  -24.0062 H   0  0  0  0  0  0  0  0  0  0  0  0
   -7.7186   -3.1639  -24.7901 H   0  0  0  0  0  0  0  0  0  0  0  0
   -7.3302   -1.9366  -18.3945 H   0  0  0  0  0  0  0  0  0  0  0  0
   -4.6512    0.9600  -17.1992 H   0  0  0  0  0  0  0  0  0  0  0  0
   -3.1624    2.0965  -18.8222 H   0  0  0  0  0  0  0  0  0  0  0  0
   -2.3219    2.3422  -21.1440 H   0  0  0  0  0  0  0  0  0  0  0  0
   -3.2697    0.9505  -22.9756 H   0  0  0  0  0  0  0  0  0  0  0  0
   -5.0263   -0.6943  -22.5008 H   0  0  0  0  0  0  0  0  0  0  0  0
   -5.3586   -3.2173  -21.9243 H   0  0  0  0  0  0  0  0  0  0  0  0
   -6.0423   -3.8761  -20.4386 H   0  0  0  0  0  0  0  0  0  0  0  0
   -8.0993   -4.4013  -21.4363 H   0  0  0  0  0  0  0  0  0  0  0  0
   -7.7695   -5.1963  -23.8284 H   0  0  0  0  0  0  0  0  0  0  0  0
   -6.1499   -4.4698  -23.8052 H   0  0  0  0  0  0  0  0  0  0  0  0
   -4.3994   -5.6703  -22.0502 H   0  0  0  0  0  0  0  0  0  0  0  0
   -4.5840   -8.1371  -20.7954 H   0  0  0  0  0  0  0  0  0  0  0  0
   -7.1907   -8.9083  -21.3434 H   0  0  0  0  0  0  0  0  0  0  0  0
  -10.1024   -4.3613  -21.5271 H   0  0  0  0  0  0  0  0  0  0  0  0
  -13.5914   -2.6190  -23.3225 H   0  0  0  0  0  0  0  0  0  0  0  0
  -12.1228   -1.0646  -24.6327 H   0  0  0  0  0  0  0  0  0  0  0  0
  1  2  1  0
  2  3  1  0
  3  4  2  0
  3  5  1  0
  5  6  1  0
  6  7  1  0
  8  7  1  6
  8  9  1  0
  9 10  2  0
  9 11  1  0
 11 12  1  0
 12 13  2  0
 13 14  1  0
 14 15  2  0
 15 16  1  0
 16 17  2  0
 17 18  1  0
 18 19  2  0
 19 20  1  0
 20 21  2  0
 11 22  1  0
 22 23  1  0
 23 24  1  0
 24 25  1  0
 25 26  1  0
 26 27  2  0
 27 28  1  0
 28 29  2  0
  8 30  1  0
 30 31  2  0
 31 32  1  0
 32 33  1  0
 32 34  2  0
 34 35  1  0
 35 36  2  0
 36 37  1  0
 37 38  2  0
 37  6  1  0
 23  8  1  0
 29 25  1  0
 36 30  1  0
 21 12  1  0
 21 16  1  0
  1 39  1  0
  1 40  1  0
  1 41  1  0
  2 42  1  0
  5 43  1  0
  5 44  1  0
  7 45  1  0
  7 46  1  0
 13 47  1  0
 15 48  1  0
 17 49  1  0
 18 50  1  0
 19 51  1  0
 20 52  1  0
 22 53  1  0
 22 54  1  0
 23 55  1  1
 24 56  1  0
 24 57  1  0
 26 58  1  0
 27 59  1  0
 28 60  1  0
 31 61  1  0
 34 62  1  0
 35 63  1  0
M  END
>  <RMSD>  (169) 
0.06222953726065442

$$$$

     RDKit          3D

 36 40  0  0  0  0  0  0  0  0999 V2000
    3.5164    3.6007   28.3708 C   0  0  0  0  0  0  0  0  0  0  0  0
    3.5304    2.7563   27.0908 C   0  0  0  0  0  0  0  0  0  0  0  0
    4.9321    2.3999   26.5866 C   0  0  0  0  0  0  0  0  0  0  0  0
    5.5375    3.2339   25.9271 O   0  0  0  0  0  0  0  0  0  0  0  0
    5.3882    1.0894   26.6921 N   0  0  0  0  0  0  0  0  0  0  0  0
    4.8834    0.2404   27.7738 C   0  0  0  0  0  0  0  0  0  0  0  0
    6.0620   -0.5245   28.3689 C   0  0  0  0  0  0  0  0  0  0  0  0
    6.6314   -1.4570   27.2982 C   0  0  0  0  0  0  0  0  0  0  0  0
    6.9148   -0.7004   26.0238 C   0  0  0  0  0  0  0  0  0  0  0  0
    7.7694   -1.2747   25.0746 C   0  0  0  0  0  0  0  0  0  0  0  0
    7.9911   -0.6384   23.8532 C   0  0  0  0  0  0  0  0  0  0  0  0
    7.3944    0.5922   23.5801 C   0  0  0  0  0  0  0  0  0  0  0  0
    7.7267    1.2441   22.3936 N   0  0  0  0  0  0  0  0  0  0  0  0
    8.1683    2.6431   22.4596 C   0  0  0  0  0  0  0  0  0  0  0  0
    9.6397    2.8353   22.7647 C   0  0  0  0  0  0  0  0  0  0  0  0
   10.4086    1.8642   23.4212 C   0  0  0  0  0  0  0  0  0  0  0  0
   11.6648    2.1663   23.9523 C   0  0  0  0  0  0  0  0  0  0  0  0
   12.1688    3.4611   23.8059 C   0  0  0  0  0  0  0  0  0  0  0  0
   11.5017    4.3942   23.0137 C   0  0  0  0  0  0  0  0  0  0  0  0
   12.2881    6.0996   22.6455 Br  0  0  0  0  0  0  0  0  0  0  0  0
   10.2254    4.0863   22.5289 C   0  0  0  0  0  0  0  0  0  0  0  0
    7.6911    0.5632   21.1808 C   0  0  0  0  0  0  0  0  0  0  0  0
    8.2419    1.0567   20.2016 O   0  0  0  0  0  0  0  0  0  0  0  0
    6.7706   -0.6589   20.9744 C   0  0  0  0  0  0  0  0  0  0  0  0
    5.7709   -0.4021   19.8477 C   0  0  0  0  0  0  0  0  0  0  0  0
    5.9855   -0.9348   18.5631 C   0  0  0  0  0  0  0  0  0  0  0  0
    5.2082   -0.6538   17.5037 N   0  0  0  0  0  0  0  0  0  0  0  0
    4.1537    0.1591   17.6987 C   0  0  0  0  0  0  0  0  0  0  0  0
    3.8387    0.7254   18.9401 C   0  0  0  0  0  0  0  0  0  0  0  0
    2.7328    1.5788   19.0970 C   0  0  0  0  0  0  0  0  0  0  0  0
    2.4682    2.1655   20.3378 C   0  0  0  0  0  0  0  0  0  0  0  0
    3.3091    1.9133   21.4251 C   0  0  0  0  0  0  0  0  0  0  0  0
    4.4052    1.0560   21.2744 C   0  0  0  0  0  0  0  0  0  0  0  0
    4.6722    0.4500   20.0378 C   0  0  0  0  0  0  0  0  0  0  0  0
    6.5450    1.1725   24.5301 C   0  0  0  0  0  0  0  0  0  0  0  0
    6.2896    0.5385   25.7578 C   0  0  0  0  0  0  0  0  0  0  0  0
  1  2  1  0
  2  3  1  0
  3  4  2  0
  3  5  1  0
  5  6  1  0
  6  7  1  0
  7  8  1  0
  8  9  1  0
  9 10  2  0
 10 11  1  0
 11 12  2  0
 12 13  1  0
 13 14  1  0
 14 15  1  0
 15 16  2  0
 16 17  1  0
 17 18  2  0
 18 19  1  0
 19 20  1  0
 19 21  2  0
 13 22  1  0
 22 23  2  0
 22 24  1  0
 24 25  1  0
 25 26  2  0
 26 27  1  0
 27 28  2  0
 28 29  1  0
 29 30  2  0
 30 31  1  0
 31 32  2  0
 32 33  1  0
 33 34  2  0
 12 35  1  0
 35 36  2  0
 36  5  1  0
 36  9  1  0
 21 15  1  0
 34 25  1  0
 34 29  1  0
M  END
>  <cnnaffinities>  (170) 
[6.32121, 6.82452, 6.79881, 6.4433, 6.86402]

>  <score>  (170) 
6.32121

>  <index>  (170) 
88

>  <Smiles>  (170) 
C(C(C(=O)N1C(C(C(c2c(c(c(N(C(c3c(c(c(c(Br)c3[H])[H])[H])[H])([H])[H])C(=O)C(c3c(nc(c4c(c(c(c(c34)[H])[H])[H])[H])[H])[H])([H])[H])c(c12)[H])[H])[H])([H])[H])([H])[H])([H])[H])([H])[H])([H])([H])[H]

>  <h>  (170) 
<NA>

>  <Training>  (170) 
True

>  <Success>  (170) 
True

>  <enamine_searched>  (170) 
False

>  <enamine_id>  (170) 
nan

$$$$

     RDKit          3D

 36 38  0  0  0  0  0  0  0  0999 V2000
   -9.4586   -2.0053  -20.5719 O   0  0  0  0  0  0  0  0  0  0  0  0
   -8.3249   -2.4113  -20.7490 C   0  0  0  0  0  0  0  0  0  0  0  0
   -7.2259   -1.4519  -21.1482 C   0  0  0  0  0  0  0  0  0  0  0  0
   -6.2911   -1.0205  -20.0358 C   0  0  0  0  0  0  0  0  0  0  0  0
   -6.5643   -1.1981  -18.7021 C   0  0  0  0  0  0  0  0  0  0  0  0
   -5.9244   -0.5818  -17.6702 N   0  0  0  0  0  0  0  0  0  0  0  0
   -4.9826    0.2696  -17.9863 C   0  0  0  0  0  0  0  0  0  0  0  0
   -4.5689    0.5337  -19.3237 C   0  0  0  0  0  0  0  0  0  0  0  0
   -3.6372    1.5509  -19.6477 C   0  0  0  0  0  0  0  0  0  0  0  0
   -3.1631    1.6651  -20.9259 C   0  0  0  0  0  0  0  0  0  0  0  0
   -3.5943    0.7687  -21.9314 C   0  0  0  0  0  0  0  0  0  0  0  0
   -4.5652   -0.1658  -21.6589 C   0  0  0  0  0  0  0  0  0  0  0  0
   -5.1361   -0.2414  -20.3610 C   0  0  0  0  0  0  0  0  0  0  0  0
   -7.9665   -3.7281  -20.5781 N   0  0  0  0  0  0  0  0  0  0  0  0
   -9.0442   -4.6997  -20.4530 C   0  0  0  0  0  0  0  0  0  0  0  0
   -9.6555   -5.1082  -21.7699 C   0  0  0  0  0  0  0  0  0  0  0  0
   -8.9622   -5.3622  -22.8810 C   0  0  0  0  0  0  0  0  0  0  0  0
   -7.4961   -5.5246  -22.9599 C   0  0  0  0  0  0  0  0  0  0  0  0
   -6.5624   -5.1608  -22.0753 C   0  0  0  0  0  0  0  0  0  0  0  0
   -6.6470   -4.2594  -20.8716 C   0  0  0  0  0  0  0  0  0  0  0  0
   -6.6819   -1.8776  -21.9972 H   0  0  0  0  0  0  0  0  0  0  0  0
   -7.7516   -0.5751  -21.5388 H   0  0  0  0  0  0  0  0  0  0  0  0
   -7.3627   -1.8537  -18.3793 H   0  0  0  0  0  0  0  0  0  0  0  0
   -4.4834    0.7775  -17.1609 H   0  0  0  0  0  0  0  0  0  0  0  0
   -3.3226    2.2294  -18.8584 H   0  0  0  0  0  0  0  0  0  0  0  0
   -2.4457    2.4405  -21.1812 H   0  0  0  0  0  0  0  0  0  0  0  0
   -3.1682    0.8320  -22.9295 H   0  0  0  0  0  0  0  0  0  0  0  0
   -4.9070   -0.8244  -22.4551 H   0  0  0  0  0  0  0  0  0  0  0  0
   -8.6194   -5.5717  -19.9390 H   0  0  0  0  0  0  0  0  0  0  0  0
   -9.8316   -4.2701  -19.8268 H   0  0  0  0  0  0  0  0  0  0  0  0
  -10.7309   -5.2679  -21.7781 H   0  0  0  0  0  0  0  0  0  0  0  0
   -9.5003   -5.5261  -23.8117 H   0  0  0  0  0  0  0  0  0  0  0  0
   -7.1465   -6.0544  -23.8454 H   0  0  0  0  0  0  0  0  0  0  0  0
   -5.5503   -5.5493  -22.2035 H   0  0  0  0  0  0  0  0  0  0  0  0
   -5.9644   -3.4181  -21.0051 H   0  0  0  0  0  0  0  0  0  0  0  0
   -6.2558   -4.8017  -19.9956 H   0  0  0  0  0  0  0  0  0  0  0  0
  1  2  2  0
  2  3  1  0
  3  4  1  0
  4  5  2  0
  5  6  1  0
  6  7  2  0
  7  8  1  0
  8  9  2  0
  9 10  1  0
 10 11  2  0
 11 12  1  0
 12 13  2  0
  2 14  1  0
 14 15  1  0
 15 16  1  0
 16 17  2  0
 17 18  1  0
 18 19  2  0
 19 20  1  0
 13  4  1  0
 20 14  1  0
 13  8  1  0
  3 21  1  0
  3 22  1  0
  5 23  1  0
  7 24  1  0
  9 25  1  0
 10 26  1  0
 11 27  1  0
 12 28  1  0
 15 29  1  0
 15 30  1  0
 16 31  1  0
 17 32  1  0
 18 33  1  0
 19 34  1  0
 20 35  1  0
 20 36  1  0
M  END
>  <RMSD>  (171) 
0.1529369763986717

$$$$

     RDKit          3D

 54 57  0  0  0  0  0  0  0  0999 V2000
   -4.6893   -1.9155  -26.8508 C   0  0  0  0  0  0  0  0  0  0  0  0
   -5.6382   -2.0412  -25.8107 O   0  0  0  0  0  0  0  0  0  0  0  0
   -5.9945   -3.3044  -25.4297 C   0  0  0  0  0  0  0  0  0  0  0  0
   -5.3999   -4.4281  -25.9901 C   0  0  0  0  0  0  0  0  0  0  0  0
   -5.7923   -5.6961  -25.5932 C   0  0  0  0  0  0  0  0  0  0  0  0
   -6.7903   -5.8469  -24.6453 C   0  0  0  0  0  0  0  0  0  0  0  0
   -7.3767   -4.7207  -24.0742 C   0  0  0  0  0  0  0  0  0  0  0  0
   -6.9765   -3.4362  -24.4266 C   0  0  0  0  0  0  0  0  0  0  0  0
   -7.6026   -2.1724  -23.8420 C   0  0  1  0  0  0  0  0  0  0  0  0
   -8.4547   -1.4403  -24.8956 C   0  0  0  0  0  0  0  0  0  0  0  0
   -9.4493   -0.4636  -24.2685 C   0  0  1  0  0  0  0  0  0  0  0  0
  -10.1558    0.2878  -25.3826 C   0  0  0  0  0  0  0  0  0  0  0  0
  -10.4821   -1.2805  -23.4622 C   0  0  0  0  0  0  0  0  0  0  0  0
   -9.8592   -2.5648  -22.8872 C   0  0  0  0  0  0  0  0  0  0  0  0
   -8.4254   -2.3995  -22.6447 N   0  0  0  0  0  0  0  0  0  0  0  0
   -8.0805   -1.8541  -21.4234 C   0  0  0  0  0  0  0  0  0  0  0  0
   -8.8735   -1.2363  -20.7389 O   0  0  0  0  0  0  0  0  0  0  0  0
   -6.6743   -2.2038  -20.9460 C   0  0  0  0  0  0  0  0  0  0  0  0
   -6.0983   -1.2259  -19.9751 C   0  0  0  0  0  0  0  0  0  0  0  0
   -6.5158   -1.2573  -18.6695 C   0  0  0  0  0  0  0  0  0  0  0  0
   -6.0292   -0.4805  -17.6701 N   0  0  0  0  0  0  0  0  0  0  0  0
   -5.0895    0.3748  -18.0028 C   0  0  0  0  0  0  0  0  0  0  0  0
   -4.5696    0.5278  -19.3203 C   0  0  0  0  0  0  0  0  0  0  0  0
   -3.5596    1.4714  -19.6348 C   0  0  0  0  0  0  0  0  0  0  0  0
   -3.1086    1.6171  -20.9165 C   0  0  0  0  0  0  0  0  0  0  0  0
   -3.6435    0.8231  -21.9540 C   0  0  0  0  0  0  0  0  0  0  0  0
   -4.6138   -0.1104  -21.6779 C   0  0  0  0  0  0  0  0  0  0  0  0
   -5.1008   -0.2839  -20.3526 C   0  0  0  0  0  0  0  0  0  0  0  0
   -4.5887   -0.8488  -27.0568 H   0  0  0  0  0  0  0  0  0  0  0  0
   -3.7117   -2.3195  -26.5550 H   0  0  0  0  0  0  0  0  0  0  0  0
   -5.0078   -2.4259  -27.7716 H   0  0  0  0  0  0  0  0  0  0  0  0
   -4.6356   -4.3195  -26.7477 H   0  0  0  0  0  0  0  0  0  0  0  0
   -5.3115   -6.5613  -26.0406 H   0  0  0  0  0  0  0  0  0  0  0  0
   -7.1187   -6.8369  -24.3487 H   0  0  0  0  0  0  0  0  0  0  0  0
   -8.1575   -4.8494  -23.3276 H   0  0  0  0  0  0  0  0  0  0  0  0
   -6.7979   -1.4865  -23.5419 H   0  0  0  0  0  0  0  0  0  0  0  0
   -7.7974   -0.9259  -25.5957 H   0  0  0  0  0  0  0  0  0  0  0  0
   -9.0135   -2.1884  -25.4786 H   0  0  0  0  0  0  0  0  0  0  0  0
   -8.9257    0.2575  -23.6099 H   0  0  0  0  0  0  0  0  0  0  0  0
   -9.4593    0.8581  -26.0065 H   0  0  0  0  0  0  0  0  0  0  0  0
  -10.6166   -0.4898  -26.0016 H   0  0  0  0  0  0  0  0  0  0  0  0
  -10.9125    0.9862  -25.0028 H   0  0  0  0  0  0  0  0  0  0  0  0
  -10.8782   -0.6710  -22.6490 H   0  0  0  0  0  0  0  0  0  0  0  0
  -11.3329   -1.5633  -24.1061 H   0  0  0  0  0  0  0  0  0  0  0  0
  -10.3474   -2.8336  -21.9402 H   0  0  0  0  0  0  0  0  0  0  0  0
   -9.9642   -3.4005  -23.5914 H   0  0  0  0  0  0  0  0  0  0  0  0
   -6.0320   -2.3513  -21.8157 H   0  0  0  0  0  0  0  0  0  0  0  0
   -6.7569   -3.1880  -20.4557 H   0  0  0  0  0  0  0  0  0  0  0  0
   -7.3029   -1.9529  -18.3785 H   0  0  0  0  0  0  0  0  0  0  0  0
   -4.6938    1.0045  -17.2040 H   0  0  0  0  0  0  0  0  0  0  0  0
   -3.1578    2.0816  -18.8310 H   0  0  0  0  0  0  0  0  0  0  0  0
   -2.3425    2.3513  -21.1532 H   0  0  0  0  0  0  0  0  0  0  0  0
   -3.2851    0.9540  -22.9717 H   0  0  0  0  0  0  0  0  0  0  0  0
   -5.0057   -0.7130  -22.4954 H   0  0  0  0  0  0  0  0  0  0  0  0
  1  2  1  0
  2  3  1  0
  3  4  2  0
  4  5  1  0
  5  6  2  0
  6  7  1  0
  7  8  2  0
  8  9  1  0
  9 10  1  0
 10 11  1  0
 11 12  1  0
 11 13  1  0
 13 14  1  0
 14 15  1  0
 15 16  1  0
 16 17  2  0
 16 18  1  0
 18 19  1  0
 19 20  2  0
 20 21  1  0
 21 22  2  0
 22 23  1  0
 23 24  2  0
 24 25  1  0
 25 26  2  0
 26 27  1  0
 27 28  2  0
  8  3  1  0
 15  9  1  0
 28 19  1  0
 28 23  1  0
  1 29  1  0
  1 30  1  0
  1 31  1  0
  4 32  1  0
  5 33  1  0
  6 34  1  0
  7 35  1  0
  9 36  1  1
 10 37  1  0
 10 38  1  0
 11 39  1  1
 12 40  1  0
 12 41  1  0
 12 42  1  0
 13 43  1  0
 13 44  1  0
 14 45  1  0
 14 46  1  0
 18 47  1  0
 18 48  1  0
 20 49  1  0
 22 50  1  0
 24 51  1  0
 25 52  1  0
 26 53  1  0
 27 54  1  0
M  END
>  <RMSD>  (172) 
0.04042957470607777

$$$$

     RDKit          3D

 30 34  0  0  0  0  0  0  0  0999 V2000
   -3.6260   -1.0749  -25.3568 N   0  0  0  0  0  0  0  0  0  0  0  0
   -4.5218   -2.0122  -26.3777 S   0  0  0  0  0  0  0  0  0  0  0  0
   -4.3055   -3.3706  -25.9215 O   0  0  0  0  0  0  0  0  0  0  0  0
   -4.1897   -1.5676  -27.7174 O   0  0  0  0  0  0  0  0  0  0  0  0
   -6.2247   -1.5897  -26.0858 C   0  0  0  0  0  0  0  0  0  0  0  0
   -6.9802   -0.9924  -27.0942 C   0  0  0  0  0  0  0  0  0  0  0  0
   -8.2844   -0.6211  -26.8254 C   0  0  0  0  0  0  0  0  0  0  0  0
   -8.8195   -0.8196  -25.5476 C   0  0  0  0  0  0  0  0  0  0  0  0
   -8.0821   -1.4607  -24.5549 C   0  0  0  0  0  0  0  0  0  0  0  0
   -6.7674   -1.8238  -24.8303 C   0  0  0  0  0  0  0  0  0  0  0  0
   -8.6804   -1.6890  -23.1807 C   0  0  1  0  0  0  0  0  0  0  0  0
  -10.2136   -1.5969  -23.2303 C   0  0  0  0  0  0  0  0  0  0  0  0
  -10.6473   -0.3861  -24.0396 C   0  0  0  0  0  0  0  0  0  0  0  0
  -10.0734   -0.3637  -25.3357 O   0  0  0  0  0  0  0  0  0  0  0  0
   -8.2605   -2.9271  -22.5735 N   0  0  0  0  0  0  0  0  0  0  0  0
   -7.4708   -2.7904  -21.4749 C   0  0  0  0  0  0  0  0  0  0  0  0
   -6.8996   -3.6586  -20.8616 O   0  0  0  0  0  0  0  0  0  0  0  0
   -7.4055   -1.4025  -21.2128 N   0  0  0  0  0  0  0  0  0  0  0  0
   -6.5917   -0.8330  -20.1938 C   0  0  0  0  0  0  0  0  0  0  0  0
   -6.9038   -1.0704  -18.8799 C   0  0  0  0  0  0  0  0  0  0  0  0
   -6.2227   -0.5506  -17.8296 N   0  0  0  0  0  0  0  0  0  0  0  0
   -5.1857    0.2058  -18.0976 C   0  0  0  0  0  0  0  0  0  0  0  0
   -4.7353    0.5148  -19.4103 C   0  0  0  0  0  0  0  0  0  0  0  0
   -3.6009    1.3410  -19.6382 C   0  0  0  0  0  0  0  0  0  0  0  0
   -3.1840    1.6043  -20.9128 C   0  0  0  0  0  0  0  0  0  0  0  0
   -3.8785    1.0466  -22.0113 C   0  0  0  0  0  0  0  0  0  0  0  0
   -4.9771    0.2488  -21.8195 C   0  0  0  0  0  0  0  0  0  0  0  0
   -5.4477   -0.0259  -20.5026 C   0  0  0  0  0  0  0  0  0  0  0  0
   -8.0981   -0.6743  -22.1807 C   0  0  0  0  0  0  0  0  0  0  0  0
   -8.2088    0.5269  -22.2172 O   0  0  0  0  0  0  0  0  0  0  0  0
  1  2  1  0
  2  3  2  0
  2  4  2  0
  2  5  1  0
  5  6  2  0
  6  7  1  0
  7  8  2  0
  8  9  1  0
  9 10  2  0
  9 11  1  0
 11 12  1  6
 12 13  1  0
 13 14  1  0
 11 15  1  0
 15 16  1  0
 16 17  2  0
 16 18  1  0
 18 19  1  0
 19 20  2  0
 20 21  1  0
 21 22  2  0
 22 23  1  0
 23 24  2  0
 24 25  1  0
 25 26  2  0
 26 27  1  0
 27 28  2  0
 18 29  1  0
 29 30  2  0
 10  5  1  0
 29 11  1  0
 14  8  1  0
 28 19  1  0
 28 23  1  0
M  END
>  <cnnaffinities>  (173) 
[5.35591, 5.34483]

>  <score>  (173) 
5.35591

>  <index>  (173) 
83

>  <Smiles>  (173) 
N(S(=O)(=O)c1c(c(c2c(c1[H])[C@@]1(C(C(O2)([H])[H])([H])[H])N(C(=O)N(c2c(nc(c3c(c(c(c(c23)[H])[H])[H])[H])[H])[H])C1=O)[H])[H])[H])([H])[H]

>  <h>  (173) 
<NA>

>  <Training>  (173) 
True

>  <Success>  (173) 
True

>  <enamine_searched>  (173) 
False

>  <enamine_id>  (173) 
nan

$$$$

     RDKit          3D

 63 68  0  0  0  0  0  0  0  0999 V2000
   -7.1727   -5.0980  -22.9661 C   0  0  0  0  0  0  0  0  0  0  0  0
   -7.5372   -3.9481  -22.0259 C   0  0  1  0  0  0  0  0  0  0  0  0
   -6.3291   -3.3273  -21.2999 C   0  0  0  0  0  0  0  0  0  0  0  0
   -6.8070   -2.0012  -20.9496 N   0  0  0  0  0  0  0  0  0  0  0  0
   -6.1826   -1.1521  -19.9993 C   0  0  0  0  0  0  0  0  0  0  0  0
   -6.5591   -1.2267  -18.6840 C   0  0  0  0  0  0  0  0  0  0  0  0
   -6.0120   -0.4940  -17.6791 N   0  0  0  0  0  0  0  0  0  0  0  0
   -5.0633    0.3505  -18.0054 C   0  0  0  0  0  0  0  0  0  0  0  0
   -4.5726    0.5376  -19.3320 C   0  0  0  0  0  0  0  0  0  0  0  0
   -3.5565    1.4850  -19.6334 C   0  0  0  0  0  0  0  0  0  0  0  0
   -3.0978    1.6253  -20.9145 C   0  0  0  0  0  0  0  0  0  0  0  0
   -3.6233    0.8180  -21.9503 C   0  0  0  0  0  0  0  0  0  0  0  0
   -4.6163   -0.0951  -21.6868 C   0  0  0  0  0  0  0  0  0  0  0  0
   -5.1323   -0.2482  -20.3695 C   0  0  0  0  0  0  0  0  0  0  0  0
   -7.9415   -1.6151  -21.6295 C   0  0  0  0  0  0  0  0  0  0  0  0
   -8.5323   -0.5697  -21.4365 O   0  0  0  0  0  0  0  0  0  0  0  0
   -8.2707   -2.7249  -22.6631 C   0  0  1  0  0  0  0  0  0  0  0  0
   -7.6128   -2.3436  -24.0107 C   0  0  0  0  0  0  0  0  0  0  0  0
   -8.3803   -1.3212  -24.7183 N   0  0  0  0  0  0  0  0  0  0  0  0
   -7.6143   -0.5389  -25.6858 C   0  0  0  0  0  0  0  0  0  0  0  0
   -6.7935    0.6223  -25.0949 C   0  0  0  0  0  0  0  0  0  0  0  0
   -5.6959    0.9164  -25.5373 O   0  0  0  0  0  0  0  0  0  0  0  0
   -7.3825    1.2769  -24.0575 N   0  0  0  0  0  0  0  0  0  0  0  0
   -6.7531    2.4251  -23.4293 C   0  0  0  0  0  0  0  0  0  0  0  0
   -6.9904    3.7349  -24.1495 C   0  0  0  0  0  0  0  0  0  0  0  0
   -6.4345    3.7226  -25.4052 F   0  0  0  0  0  0  0  0  0  0  0  0
   -6.9664    5.0242  -23.3941 C   0  0  0  0  0  0  0  0  0  0  0  0
   -8.2703    4.4845  -23.9726 C   0  0  0  0  0  0  0  0  0  0  0  0
   -9.6713   -1.6971  -25.0736 C   0  0  0  0  0  0  0  0  0  0  0  0
  -10.1700   -1.4536  -26.1581 O   0  0  0  0  0  0  0  0  0  0  0  0
  -10.4277   -2.3782  -23.9717 C   0  0  0  0  0  0  0  0  0  0  0  0
  -11.8203   -2.4477  -24.0707 C   0  0  0  0  0  0  0  0  0  0  0  0
  -12.5781   -3.0083  -23.0608 C   0  0  0  0  0  0  0  0  0  0  0  0
  -11.9069   -3.5197  -21.9557 C   0  0  0  0  0  0  0  0  0  0  0  0
  -12.6274   -4.0773  -20.9691 F   0  0  0  0  0  0  0  0  0  0  0  0
  -10.5345   -3.4756  -21.8301 C   0  0  0  0  0  0  0  0  0  0  0  0
   -9.7644   -2.8878  -22.8466 C   0  0  0  0  0  0  0  0  0  0  0  0
   -6.3680   -4.8101  -23.6537 H   0  0  0  0  0  0  0  0  0  0  0  0
   -8.0324   -5.4006  -23.5746 H   0  0  0  0  0  0  0  0  0  0  0  0
   -6.8282   -5.9748  -22.4062 H   0  0  0  0  0  0  0  0  0  0  0  0
   -8.2172   -4.3358  -21.2615 H   0  0  0  0  0  0  0  0  0  0  0  0
   -5.4536   -3.2879  -21.9699 H   0  0  0  0  0  0  0  0  0  0  0  0
   -6.0272   -3.8769  -20.4024 H   0  0  0  0  0  0  0  0  0  0  0  0
   -7.3474   -1.9185  -18.3918 H   0  0  0  0  0  0  0  0  0  0  0  0
   -4.6328    0.9409  -17.1957 H   0  0  0  0  0  0  0  0  0  0  0  0
   -3.1728    2.1013  -18.8242 H   0  0  0  0  0  0  0  0  0  0  0  0
   -2.3434    2.3708  -21.1528 H   0  0  0  0  0  0  0  0  0  0  0  0
   -3.2661    0.9484  -22.9703 H   0  0  0  0  0  0  0  0  0  0  0  0
   -5.0185   -0.7044  -22.4917 H   0  0  0  0  0  0  0  0  0  0  0  0
   -6.6132   -1.9398  -23.8279 H   0  0  0  0  0  0  0  0  0  0  0  0
   -7.5122   -3.2440  -24.6420 H   0  0  0  0  0  0  0  0  0  0  0  0
   -8.3390   -0.1452  -26.4031 H   0  0  0  0  0  0  0  0  0  0  0  0
   -6.9028   -1.1554  -26.2458 H   0  0  0  0  0  0  0  0  0  0  0  0
   -8.3103    0.9973  -23.7728 H   0  0  0  0  0  0  0  0  0  0  0  0
   -5.6752    2.2366  -23.3678 H   0  0  0  0  0  0  0  0  0  0  0  0
   -7.1551    2.5192  -22.4116 H   0  0  0  0  0  0  0  0  0  0  0  0
   -6.5203    5.8891  -23.8801 H   0  0  0  0  0  0  0  0  0  0  0  0
   -6.8011    4.9986  -22.3147 H   0  0  0  0  0  0  0  0  0  0  0  0
   -9.0288    4.0688  -23.3075 H   0  0  0  0  0  0  0  0  0  0  0  0
   -8.6779    4.9878  -24.8462 H   0  0  0  0  0  0  0  0  0  0  0  0
  -12.2919   -2.0231  -24.9498 H   0  0  0  0  0  0  0  0  0  0  0  0
  -13.6633   -3.0362  -23.0886 H   0  0  0  0  0  0  0  0  0  0  0  0
  -10.0845   -3.8877  -20.9312 H   0  0  0  0  0  0  0  0  0  0  0  0
  1  2  1  0
  2  3  1  0
  3  4  1  0
  4  5  1  0
  5  6  2  0
  6  7  1  0
  7  8  2  0
  8  9  1  0
  9 10  2  0
 10 11  1  0
 11 12  2  0
 12 13  1  0
 13 14  2  0
  4 15  1  0
 15 16  2  0
 15 17  1  0
 17 18  1  6
 18 19  1  0
 19 20  1  0
 20 21  1  0
 21 22  2  0
 21 23  1  0
 23 24  1  0
 24 25  1  0
 25 26  1  0
 25 27  1  0
 27 28  1  0
 19 29  1  0
 29 30  2  0
 29 31  1  0
 31 32  2  0
 32 33  1  0
 33 34  2  0
 34 35  1  0
 34 36  1  0
 36 37  2  0
 17  2  1  0
 28 25  1  0
 37 31  1  0
 14  5  1  0
 37 17  1  0
 14  9  1  0
  1 38  1  0
  1 39  1  0
  1 40  1  0
  2 41  1  1
  3 42  1  0
  3 43  1  0
  6 44  1  0
  8 45  1  0
 10 46  1  0
 11 47  1  0
 12 48  1  0
 13 49  1  0
 18 50  1  0
 18 51  1  0
 20 52  1  0
 20 53  1  0
 23 54  1  0
 24 55  1  0
 24 56  1  0
 27 57  1  0
 27 58  1  0
 28 59  1  0
 28 60  1  0
 32 61  1  0
 33 62  1  0
 36 63  1  0
M  END
>  <RMSD>  (174) 
0.0689903114007168

$$$$

     RDKit          3D

 57 62  0  0  0  0  0  0  0  0999 V2000
   -6.7578    2.6608  -23.2126 C   0  0  0  0  0  0  0  0  0  0  0  0
   -7.3155    1.4887  -23.8570 N   0  0  0  0  0  0  0  0  0  0  0  0
   -6.8355    1.0703  -25.0460 C   0  0  0  0  0  0  0  0  0  0  0  0
   -6.0107    1.7024  -25.6953 O   0  0  0  0  0  0  0  0  0  0  0  0
   -7.3430   -0.2763  -25.5831 C   0  0  0  0  0  0  0  0  0  0  0  0
   -8.1676   -1.0735  -24.6981 N   0  0  0  0  0  0  0  0  0  0  0  0
   -7.5940   -2.2755  -24.1234 C   0  0  0  0  0  0  0  0  0  0  0  0
   -8.2299   -2.6702  -22.7559 C   0  0  2  0  0  0  0  0  0  0  0  0
   -7.8759   -1.5652  -21.7230 C   0  0  0  0  0  0  0  0  0  0  0  0
   -8.4057   -0.4764  -21.5938 O   0  0  0  0  0  0  0  0  0  0  0  0
   -6.8174   -2.0043  -20.9620 N   0  0  0  0  0  0  0  0  0  0  0  0
   -6.1797   -1.1608  -20.0030 C   0  0  0  0  0  0  0  0  0  0  0  0
   -6.5489   -1.2367  -18.6858 C   0  0  0  0  0  0  0  0  0  0  0  0
   -6.0114   -0.4949  -17.6832 N   0  0  0  0  0  0  0  0  0  0  0  0
   -5.0690    0.3604  -18.0050 C   0  0  0  0  0  0  0  0  0  0  0  0
   -4.5755    0.5437  -19.3295 C   0  0  0  0  0  0  0  0  0  0  0  0
   -3.5534    1.4852  -19.6330 C   0  0  0  0  0  0  0  0  0  0  0  0
   -3.0918    1.6208  -20.9140 C   0  0  0  0  0  0  0  0  0  0  0  0
   -3.6254    0.8199  -21.9501 C   0  0  0  0  0  0  0  0  0  0  0  0
   -4.6219   -0.0874  -21.6822 C   0  0  0  0  0  0  0  0  0  0  0  0
   -5.1369   -0.2454  -20.3662 C   0  0  0  0  0  0  0  0  0  0  0  0
   -6.3566   -3.3317  -21.3182 C   0  0  0  0  0  0  0  0  0  0  0  0
   -7.4773   -3.9078  -22.1987 C   0  0  0  0  0  0  0  0  0  0  0  0
   -7.0668   -5.0314  -23.1277 C   0  0  0  0  0  0  0  0  0  0  0  0
   -7.9553   -5.3155  -21.9466 C   0  0  0  0  0  0  0  0  0  0  0  0
   -9.7325   -2.7057  -22.9698 C   0  0  0  0  0  0  0  0  0  0  0  0
  -10.5633   -3.5190  -22.1998 C   0  0  0  0  0  0  0  0  0  0  0  0
  -11.9345   -3.4710  -22.3617 C   0  0  0  0  0  0  0  0  0  0  0  0
  -12.9295   -4.5606  -21.4377 Cl  0  0  0  0  0  0  0  0  0  0  0  0
  -12.5331   -2.5803  -23.2514 C   0  0  0  0  0  0  0  0  0  0  0  0
  -11.7209   -1.7352  -23.9832 C   0  0  0  0  0  0  0  0  0  0  0  0
  -10.3351   -1.7942  -23.8590 C   0  0  0  0  0  0  0  0  0  0  0  0
   -9.5152   -0.8341  -24.6765 C   0  0  0  0  0  0  0  0  0  0  0  0
  -10.0026    0.1238  -25.2646 O   0  0  0  0  0  0  0  0  0  0  0  0
   -6.8617    3.5490  -23.8447 H   0  0  0  0  0  0  0  0  0  0  0  0
   -7.2939    2.8118  -22.2720 H   0  0  0  0  0  0  0  0  0  0  0  0
   -5.6927    2.5114  -22.9956 H   0  0  0  0  0  0  0  0  0  0  0  0
   -8.0645    0.9915  -23.3940 H   0  0  0  0  0  0  0  0  0  0  0  0
   -6.4437   -0.8468  -25.8378 H   0  0  0  0  0  0  0  0  0  0  0  0
   -7.8843   -0.0793  -26.5151 H   0  0  0  0  0  0  0  0  0  0  0  0
   -7.7134   -3.1225  -24.8112 H   0  0  0  0  0  0  0  0  0  0  0  0
   -6.5236   -2.1046  -23.9665 H   0  0  0  0  0  0  0  0  0  0  0  0
   -7.3301   -1.9333  -18.3907 H   0  0  0  0  0  0  0  0  0  0  0  0
   -4.6543    0.9614  -17.1932 H   0  0  0  0  0  0  0  0  0  0  0  0
   -3.1602    2.1003  -18.8259 H   0  0  0  0  0  0  0  0  0  0  0  0
   -2.3254    2.3548  -21.1525 H   0  0  0  0  0  0  0  0  0  0  0  0
   -3.2715    0.9502  -22.9714 H   0  0  0  0  0  0  0  0  0  0  0  0
   -5.0311   -0.6964  -22.4826 H   0  0  0  0  0  0  0  0  0  0  0  0
   -5.4302   -3.2842  -21.9165 H   0  0  0  0  0  0  0  0  0  0  0  0
   -6.1561   -3.9199  -20.4197 H   0  0  0  0  0  0  0  0  0  0  0  0
   -6.0281   -5.3678  -23.1431 H   0  0  0  0  0  0  0  0  0  0  0  0
   -7.5349   -5.0881  -24.1091 H   0  0  0  0  0  0  0  0  0  0  0  0
   -8.9923   -5.5709  -22.1382 H   0  0  0  0  0  0  0  0  0  0  0  0
   -7.5417   -5.8340  -21.0790 H   0  0  0  0  0  0  0  0  0  0  0  0
  -10.1471   -4.1761  -21.4517 H   0  0  0  0  0  0  0  0  0  0  0  0
  -13.6126   -2.5398  -23.3402 H   0  0  0  0  0  0  0  0  0  0  0  0
  -12.1300   -0.9885  -24.6535 H   0  0  0  0  0  0  0  0  0  0  0  0
  1  2  1  0
  2  3  1  0
  3  4  2  0
  3  5  1  0
  5  6  1  0
  6  7  1  0
  8  7  1  6
  8  9  1  0
  9 10  2  0
  9 11  1  0
 11 12  1  0
 12 13  2  0
 13 14  1  0
 14 15  2  0
 15 16  1  0
 16 17  2  0
 17 18  1  0
 18 19  2  0
 19 20  1  0
 20 21  2  0
 11 22  1  0
 22 23  1  0
 23 24  1  0
 24 25  1  0
  8 26  1  0
 26 27  2  0
 27 28  1  0
 28 29  1  0
 28 30  2  0
 30 31  1  0
 31 32  2  0
 32 33  1  0
 33 34  2  0
 33  6  1  0
 23  8  1  0
 32 26  1  0
 21 12  1  0
 25 23  1  0
 21 16  1  0
  1 35  1  0
  1 36  1  0
  1 37  1  0
  2 38  1  0
  5 39  1  0
  5 40  1  0
  7 41  1  0
  7 42  1  0
 13 43  1  0
 15 44  1  0
 17 45  1  0
 18 46  1  0
 19 47  1  0
 20 48  1  0
 22 49  1  0
 22 50  1  0
 24 51  1  0
 24 52  1  0
 25 53  1  0
 25 54  1  0
 27 55  1  0
 30 56  1  0
 31 57  1  0
M  END
>  <RMSD>  (175) 
0.06153311057976551

$$$$

     RDKit          3D

 43 45  0  0  0  0  0  0  0  0999 V2000
   -8.5780    0.4112  -26.4193 C   0  0  0  0  0  0  0  0  0  0  0  0
   -8.3610   -0.4014  -25.1431 C   0  0  1  0  0  0  0  0  0  0  0  0
   -9.5751   -1.2902  -24.8571 C   0  0  0  0  0  0  0  0  0  0  0  0
   -9.3924   -2.1759  -23.6041 C   0  0  0  0  0  0  0  0  0  0  0  0
   -8.0131   -2.3041  -23.1443 N   0  0  0  0  0  0  0  0  0  0  0  0
   -7.6197   -1.3881  -22.1252 C   0  0  0  0  0  0  0  0  0  0  0  0
   -7.9545   -0.2279  -22.0907 O   0  0  0  0  0  0  0  0  0  0  0  0
   -6.8191   -2.0674  -21.0161 C   0  0  0  0  0  0  0  0  0  0  0  0
   -6.1608   -1.1655  -20.0081 C   0  0  0  0  0  0  0  0  0  0  0  0
   -6.5012   -1.2640  -18.6823 C   0  0  0  0  0  0  0  0  0  0  0  0
   -6.0039   -0.4994  -17.6790 N   0  0  0  0  0  0  0  0  0  0  0  0
   -5.0863    0.3797  -18.0071 C   0  0  0  0  0  0  0  0  0  0  0  0
   -4.6026    0.5639  -19.3313 C   0  0  0  0  0  0  0  0  0  0  0  0
   -3.5798    1.4939  -19.6348 C   0  0  0  0  0  0  0  0  0  0  0  0
   -3.0980    1.6058  -20.9118 C   0  0  0  0  0  0  0  0  0  0  0  0
   -3.6265    0.7996  -21.9460 C   0  0  0  0  0  0  0  0  0  0  0  0
   -4.6324   -0.0905  -21.6807 C   0  0  0  0  0  0  0  0  0  0  0  0
   -5.1519   -0.2297  -20.3647 C   0  0  0  0  0  0  0  0  0  0  0  0
   -7.0568   -2.4678  -24.2509 C   0  0  1  0  0  0  0  0  0  0  0  0
   -7.3200   -3.7823  -24.9884 C   0  0  0  0  0  0  0  0  0  0  0  0
   -7.0747   -1.2473  -25.2128 C   0  0  0  0  0  0  0  0  0  0  0  0
   -9.4668    1.0466  -26.3469 H   0  0  0  0  0  0  0  0  0  0  0  0
   -7.7317    1.0613  -26.6594 H   0  0  0  0  0  0  0  0  0  0  0  0
   -8.7287   -0.2476  -27.2812 H   0  0  0  0  0  0  0  0  0  0  0  0
   -8.2561    0.2742  -24.2895 H   0  0  0  0  0  0  0  0  0  0  0  0
   -9.7781   -1.9159  -25.7420 H   0  0  0  0  0  0  0  0  0  0  0  0
  -10.4615   -0.6491  -24.7395 H   0  0  0  0  0  0  0  0  0  0  0  0
   -9.9619   -1.7977  -22.7465 H   0  0  0  0  0  0  0  0  0  0  0  0
   -9.7681   -3.1906  -23.8084 H   0  0  0  0  0  0  0  0  0  0  0  0
   -7.5637   -2.6856  -20.4907 H   0  0  0  0  0  0  0  0  0  0  0  0
   -6.1101   -2.7610  -21.4958 H   0  0  0  0  0  0  0  0  0  0  0  0
   -7.2139   -2.0228  -18.3580 H   0  0  0  0  0  0  0  0  0  0  0  0
   -4.6786    0.9942  -17.2037 H   0  0  0  0  0  0  0  0  0  0  0  0
   -3.1949    2.1115  -18.8277 H   0  0  0  0  0  0  0  0  0  0  0  0
   -2.3055    2.3116  -21.1368 H   0  0  0  0  0  0  0  0  0  0  0  0
   -3.2354    0.8954  -22.9559 H   0  0  0  0  0  0  0  0  0  0  0  0
   -5.0449   -0.7021  -22.4795 H   0  0  0  0  0  0  0  0  0  0  0  0
   -6.0636   -2.5308  -23.7834 H   0  0  0  0  0  0  0  0  0  0  0  0
   -8.2360   -3.7403  -25.5940 H   0  0  0  0  0  0  0  0  0  0  0  0
   -7.4241   -4.5952  -24.2617 H   0  0  0  0  0  0  0  0  0  0  0  0
   -6.4830   -4.0113  -25.6607 H   0  0  0  0  0  0  0  0  0  0  0  0
   -6.2193   -0.5912  -25.0014 H   0  0  0  0  0  0  0  0  0  0  0  0
   -6.9342   -1.6206  -26.2358 H   0  0  0  0  0  0  0  0  0  0  0  0
  1  2  1  0
  2  3  1  0
  3  4  1  0
  4  5  1  0
  5  6  1  0
  6  7  2  0
  6  8  1  0
  8  9  1  0
  9 10  2  0
 10 11  1  0
 11 12  2  0
 12 13  1  0
 13 14  2  0
 14 15  1  0
 15 16  2  0
 16 17  1  0
 17 18  2  0
  5 19  1  0
 19 20  1  0
 19 21  1  0
 21  2  1  0
 18  9  1  0
 18 13  1  0
  1 22  1  0
  1 23  1  0
  1 24  1  0
  2 25  1  1
  3 26  1  0
  3 27  1  0
  4 28  1  0
  4 29  1  0
  8 30  1  0
  8 31  1  0
 10 32  1  0
 12 33  1  0
 14 34  1  0
 15 35  1  0
 16 36  1  0
 17 37  1  0
 19 38  1  1
 20 39  1  0
 20 40  1  0
 20 41  1  0
 21 42  1  0
 21 43  1  0
M  END
>  <RMSD>  (176) 
0.030950458135821434

$$$$

     RDKit          3D

 59 64  0  0  0  0  0  0  0  0999 V2000
   -7.2354   -5.0317  -23.0325 C   0  0  0  0  0  0  0  0  0  0  0  0
   -7.5629   -3.8718  -22.1009 C   0  0  1  0  0  0  0  0  0  0  0  0
   -6.3509   -3.2987  -21.3532 C   0  0  0  0  0  0  0  0  0  0  0  0
   -6.8143   -1.9780  -20.9712 N   0  0  0  0  0  0  0  0  0  0  0  0
   -6.1796   -1.1518  -20.0063 C   0  0  0  0  0  0  0  0  0  0  0  0
   -6.5459   -1.2423  -18.6890 C   0  0  0  0  0  0  0  0  0  0  0  0
   -6.0104   -0.5025  -17.6834 N   0  0  0  0  0  0  0  0  0  0  0  0
   -5.0720    0.3586  -18.0026 C   0  0  0  0  0  0  0  0  0  0  0  0
   -4.5719    0.5407  -19.3244 C   0  0  0  0  0  0  0  0  0  0  0  0
   -3.5556    1.4892  -19.6318 C   0  0  0  0  0  0  0  0  0  0  0  0
   -3.0992    1.6234  -20.9125 C   0  0  0  0  0  0  0  0  0  0  0  0
   -3.6249    0.8130  -21.9475 C   0  0  0  0  0  0  0  0  0  0  0  0
   -4.6256   -0.0878  -21.6851 C   0  0  0  0  0  0  0  0  0  0  0  0
   -5.1276   -0.2465  -20.3653 C   0  0  0  0  0  0  0  0  0  0  0  0
   -7.8859   -1.5330  -21.7164 C   0  0  0  0  0  0  0  0  0  0  0  0
   -8.4181   -0.4565  -21.5617 O   0  0  0  0  0  0  0  0  0  0  0  0
   -8.2386   -2.6324  -22.7515 C   0  0  1  0  0  0  0  0  0  0  0  0
   -7.5990   -2.2859  -24.1221 C   0  0  0  0  0  0  0  0  0  0  0  0
   -8.1725   -1.0934  -24.7152 N   0  0  0  0  0  0  0  0  0  0  0  0
   -7.3206   -0.2910  -25.5760 C   0  0  0  0  0  0  0  0  0  0  0  0
   -6.7412    0.8898  -24.8567 C   0  0  0  0  0  0  0  0  0  0  0  0
   -7.3443    1.7210  -23.9446 C   0  0  0  0  0  0  0  0  0  0  0  0
   -6.3695    2.6883  -23.6507 C   0  0  0  0  0  0  0  0  0  0  0  0
   -5.2468    2.4755  -24.3313 N   0  0  0  0  0  0  0  0  0  0  0  0
   -5.4915    1.3734  -25.0582 N   0  0  0  0  0  0  0  0  0  0  0  0
   -4.4639    0.7977  -25.8950 C   0  0  0  0  0  0  0  0  0  0  0  0
   -9.5112   -0.8239  -24.6568 C   0  0  0  0  0  0  0  0  0  0  0  0
  -10.0061    0.1336  -25.2344 O   0  0  0  0  0  0  0  0  0  0  0  0
  -10.3362   -1.7835  -23.8395 C   0  0  0  0  0  0  0  0  0  0  0  0
  -11.7258   -1.7243  -23.9638 C   0  0  0  0  0  0  0  0  0  0  0  0
  -12.5401   -2.5792  -23.2455 C   0  0  0  0  0  0  0  0  0  0  0  0
  -11.9249   -3.5031  -22.4041 C   0  0  0  0  0  0  0  0  0  0  0  0
  -12.6974   -4.3374  -21.6871 F   0  0  0  0  0  0  0  0  0  0  0  0
  -10.5548   -3.5880  -22.2564 C   0  0  0  0  0  0  0  0  0  0  0  0
   -9.7329   -2.7098  -22.9713 C   0  0  0  0  0  0  0  0  0  0  0  0
   -8.1103   -5.3408  -23.6137 H   0  0  0  0  0  0  0  0  0  0  0  0
   -6.8774   -5.9058  -22.4782 H   0  0  0  0  0  0  0  0  0  0  0  0
   -6.4571   -4.7545  -23.7503 H   0  0  0  0  0  0  0  0  0  0  0  0
   -8.2398   -4.2402  -21.3265 H   0  0  0  0  0  0  0  0  0  0  0  0
   -5.4651   -3.2731  -22.0127 H   0  0  0  0  0  0  0  0  0  0  0  0
   -6.0835   -3.8815  -20.4682 H   0  0  0  0  0  0  0  0  0  0  0  0
   -7.3269   -1.9386  -18.3915 H   0  0  0  0  0  0  0  0  0  0  0  0
   -4.6525    0.9625  -17.1951 H   0  0  0  0  0  0  0  0  0  0  0  0
   -3.1569    2.1105  -18.8304 H   0  0  0  0  0  0  0  0  0  0  0  0
   -2.3337    2.3580  -21.1539 H   0  0  0  0  0  0  0  0  0  0  0  0
   -3.2634    0.9368  -22.9641 H   0  0  0  0  0  0  0  0  0  0  0  0
   -5.0433   -0.7073  -22.4761 H   0  0  0  0  0  0  0  0  0  0  0  0
   -7.7324   -3.1289  -24.8151 H   0  0  0  0  0  0  0  0  0  0  0  0
   -6.5260   -2.1138  -23.9920 H   0  0  0  0  0  0  0  0  0  0  0  0
   -6.5316   -0.9397  -25.9868 H   0  0  0  0  0  0  0  0  0  0  0  0
   -7.9399    0.0588  -26.4089 H   0  0  0  0  0  0  0  0  0  0  0  0
   -8.3619    1.6425  -23.5853 H   0  0  0  0  0  0  0  0  0  0  0  0
   -6.4493    3.5263  -22.9740 H   0  0  0  0  0  0  0  0  0  0  0  0
   -3.6012    1.4575  -25.8838 H   0  0  0  0  0  0  0  0  0  0  0  0
   -4.1582   -0.1982  -25.5568 H   0  0  0  0  0  0  0  0  0  0  0  0
   -4.8149    0.7007  -26.9244 H   0  0  0  0  0  0  0  0  0  0  0  0
  -12.1566   -0.9932  -24.6384 H   0  0  0  0  0  0  0  0  0  0  0  0
  -13.6256   -2.5429  -23.3089 H   0  0  0  0  0  0  0  0  0  0  0  0
  -10.1497   -4.3412  -21.5868 H   0  0  0  0  0  0  0  0  0  0  0  0
  1  2  1  0
  2  3  1  0
  3  4  1  0
  4  5  1  0
  5  6  2  0
  6  7  1  0
  7  8  2  0
  8  9  1  0
  9 10  2  0
 10 11  1  0
 11 12  2  0
 12 13  1  0
 13 14  2  0
  4 15  1  0
 15 16  2  0
 15 17  1  0
 17 18  1  6
 18 19  1  0
 19 20  1  0
 20 21  1  0
 21 22  2  0
 22 23  1  0
 23 24  2  0
 24 25  1  0
 25 26  1  0
 19 27  1  0
 27 28  2  0
 27 29  1  0
 29 30  2  0
 30 31  1  0
 31 32  2  0
 32 33  1  0
 32 34  1  0
 34 35  2  0
 17  2  1  0
 25 21  1  0
 35 29  1  0
 14  5  1  0
 35 17  1  0
 14  9  1  0
  1 36  1  0
  1 37  1  0
  1 38  1  0
  2 39  1  1
  3 40  1  0
  3 41  1  0
  6 42  1  0
  8 43  1  0
 10 44  1  0
 11 45  1  0
 12 46  1  0
 13 47  1  0
 18 48  1  0
 18 49  1  0
 20 50  1  0
 20 51  1  0
 22 52  1  0
 23 53  1  0
 26 54  1  0
 26 55  1  0
 26 56  1  0
 30 57  1  0
 31 58  1  0
 34 59  1  0
M  END
>  <RMSD>  (177) 
0.05621736799171975

$$$$

     RDKit          3D

 40 42  0  0  0  0  0  0  0  0999 V2000
   -8.8042   -1.0536  -21.0630 O   0  0  0  0  0  0  0  0  0  0  0  0
   -8.0278   -1.8352  -21.5798 C   0  0  0  0  0  0  0  0  0  0  0  0
   -6.6793   -2.2260  -20.9496 C   0  0  0  0  0  0  0  0  0  0  0  0
   -6.1000   -1.2361  -19.9810 C   0  0  0  0  0  0  0  0  0  0  0  0
   -6.5196   -1.2576  -18.6776 C   0  0  0  0  0  0  0  0  0  0  0  0
   -6.0381   -0.4664  -17.6825 N   0  0  0  0  0  0  0  0  0  0  0  0
   -5.0886    0.3774  -18.0103 C   0  0  0  0  0  0  0  0  0  0  0  0
   -4.5610    0.5227  -19.3232 C   0  0  0  0  0  0  0  0  0  0  0  0
   -3.5546    1.4726  -19.6300 C   0  0  0  0  0  0  0  0  0  0  0  0
   -3.1037    1.6197  -20.9122 C   0  0  0  0  0  0  0  0  0  0  0  0
   -3.6457    0.8213  -21.9440 C   0  0  0  0  0  0  0  0  0  0  0  0
   -4.6120   -0.1159  -21.6747 C   0  0  0  0  0  0  0  0  0  0  0  0
   -5.0951   -0.2947  -20.3509 C   0  0  0  0  0  0  0  0  0  0  0  0
   -8.3250   -2.5122  -22.7569 N   0  0  0  0  0  0  0  0  0  0  0  0
   -9.7196   -2.6068  -23.1736 C   0  0  0  0  0  0  0  0  0  0  0  0
  -10.0737   -1.5880  -24.2648 C   0  0  0  0  0  0  0  0  0  0  0  0
   -9.0638   -1.5994  -25.4371 C   0  0  0  0  0  0  0  0  0  0  0  0
   -9.4230   -0.5586  -26.4868 C   0  0  0  0  0  0  0  0  0  0  0  0
  -10.6253   -0.9221  -27.0302 F   0  0  0  0  0  0  0  0  0  0  0  0
   -9.5705    0.6877  -25.9527 F   0  0  0  0  0  0  0  0  0  0  0  0
   -7.6416   -1.4780  -24.8758 C   0  0  0  0  0  0  0  0  0  0  0  0
   -7.3875   -2.6129  -23.8715 C   0  0  0  0  0  0  0  0  0  0  0  0
   -5.9493   -2.4936  -21.7176 H   0  0  0  0  0  0  0  0  0  0  0  0
   -6.8753   -3.1712  -20.4239 H   0  0  0  0  0  0  0  0  0  0  0  0
   -7.2996   -1.9591  -18.3771 H   0  0  0  0  0  0  0  0  0  0  0  0
   -4.6797    1.0109  -17.2204 H   0  0  0  0  0  0  0  0  0  0  0  0
   -3.1607    2.0873  -18.8256 H   0  0  0  0  0  0  0  0  0  0  0  0
   -2.3382    2.3550  -21.1483 H   0  0  0  0  0  0  0  0  0  0  0  0
   -3.2971    0.9569  -22.9619 H   0  0  0  0  0  0  0  0  0  0  0  0
   -5.0229   -0.7123  -22.4876 H   0  0  0  0  0  0  0  0  0  0  0  0
   -9.8995   -3.6321  -23.5421 H   0  0  0  0  0  0  0  0  0  0  0  0
  -10.3311   -2.4438  -22.2807 H   0  0  0  0  0  0  0  0  0  0  0  0
  -11.0886   -1.7989  -24.6338 H   0  0  0  0  0  0  0  0  0  0  0  0
  -10.0689   -0.5902  -23.8010 H   0  0  0  0  0  0  0  0  0  0  0  0
   -9.1442   -2.5380  -26.0069 H   0  0  0  0  0  0  0  0  0  0  0  0
   -8.7013   -0.4801  -27.3102 H   0  0  0  0  0  0  0  0  0  0  0  0
   -6.8614   -1.4689  -25.6502 H   0  0  0  0  0  0  0  0  0  0  0  0
   -7.5637   -0.5220  -24.3456 H   0  0  0  0  0  0  0  0  0  0  0  0
   -7.5078   -3.5931  -24.3572 H   0  0  0  0  0  0  0  0  0  0  0  0
   -6.3652   -2.5697  -23.4970 H   0  0  0  0  0  0  0  0  0  0  0  0
  1  2  2  0
  2  3  1  0
  3  4  1  0
  4  5  2  0
  5  6  1  0
  6  7  2  0
  7  8  1  0
  8  9  2  0
  9 10  1  0
 10 11  2  0
 11 12  1  0
 12 13  2  0
  2 14  1  0
 14 15  1  0
 15 16  1  0
 16 17  1  0
 17 18  1  0
 18 19  1  0
 18 20  1  0
 17 21  1  0
 21 22  1  0
 13  4  1  0
 22 14  1  0
 13  8  1  0
  3 23  1  0
  3 24  1  0
  5 25  1  0
  7 26  1  0
  9 27  1  0
 10 28  1  0
 11 29  1  0
 12 30  1  0
 15 31  1  0
 15 32  1  0
 16 33  1  0
 16 34  1  0
 17 35  1  0
 18 36  1  0
 21 37  1  0
 21 38  1  0
 22 39  1  0
 22 40  1  0
M  END
>  <RMSD>  (178) 
0.043419096459960733

$$$$

     RDKit          3D

 38 40  0  0  0  0  0  0  0  0999 V2000
    9.1096   -0.8076   20.6638 O   0  0  0  0  0  0  0  0  0  0  0  0
    7.9644   -1.1800   20.8689 C   0  0  0  0  0  0  0  0  0  0  0  0
    6.8514   -0.1690   21.0572 C   0  0  0  0  0  0  0  0  0  0  0  0
    5.9356    0.0140   19.8553 C   0  0  0  0  0  0  0  0  0  0  0  0
    6.2774   -0.3602   18.5757 C   0  0  0  0  0  0  0  0  0  0  0  0
    5.6458    0.0344   17.4308 N   0  0  0  0  0  0  0  0  0  0  0  0
    4.6716    0.8995   17.5665 C   0  0  0  0  0  0  0  0  0  0  0  0
    4.1815    1.3451   18.8333 C   0  0  0  0  0  0  0  0  0  0  0  0
    3.2277    2.3879   18.9594 C   0  0  0  0  0  0  0  0  0  0  0  0
    2.6705    2.6679   20.1772 C   0  0  0  0  0  0  0  0  0  0  0  0
    3.0739    1.9509   21.3215 C   0  0  0  0  0  0  0  0  0  0  0  0
    4.0964    1.0384   21.2503 C   0  0  0  0  0  0  0  0  0  0  0  0
    4.7271    0.7687   20.0061 C   0  0  0  0  0  0  0  0  0  0  0  0
    7.6182   -2.5016   20.9255 N   0  0  0  0  0  0  0  0  0  0  0  0
    6.2804   -2.9659   21.2653 C   0  0  0  0  0  0  0  0  0  0  0  0
    6.1354   -3.4476   22.6953 C   0  0  0  0  0  0  0  0  0  0  0  0
    6.9068   -4.3632   23.2872 C   0  0  0  0  0  0  0  0  0  0  0  0
    8.0708   -5.0748   22.6393 C   0  0  0  0  0  0  0  0  0  0  0  0
    9.1459   -4.1588   22.0311 C   0  0  0  0  0  0  0  0  0  0  0  0
    8.6610   -3.4980   20.7442 C   0  0  0  0  0  0  0  0  0  0  0  0
    6.2804   -0.4296   21.9542 H   0  0  0  0  0  0  0  0  0  0  0  0
    7.3698    0.7686   21.2805 H   0  0  0  0  0  0  0  0  0  0  0  0
    7.1226   -1.0178   18.4036 H   0  0  0  0  0  0  0  0  0  0  0  0
    4.2164    1.2653   16.6415 H   0  0  0  0  0  0  0  0  0  0  0  0
    2.9619    2.9784   18.0876 H   0  0  0  0  0  0  0  0  0  0  0  0
    1.9300    3.4562   20.2819 H   0  0  0  0  0  0  0  0  0  0  0  0
    2.6155    2.1600   22.2822 H   0  0  0  0  0  0  0  0  0  0  0  0
    4.4299    0.5404   22.1553 H   0  0  0  0  0  0  0  0  0  0  0  0
    6.0151   -3.7682   20.5570 H   0  0  0  0  0  0  0  0  0  0  0  0
    5.5759   -2.1497   21.0873 H   0  0  0  0  0  0  0  0  0  0  0  0
    5.2990   -3.0373   23.2623 H   0  0  0  0  0  0  0  0  0  0  0  0
    6.6806   -4.6184   24.3225 H   0  0  0  0  0  0  0  0  0  0  0  0
    7.6874   -5.6949   21.8233 H   0  0  0  0  0  0  0  0  0  0  0  0
    8.5140   -5.7641   23.3639 H   0  0  0  0  0  0  0  0  0  0  0  0
   10.0260   -4.7643   21.7717 H   0  0  0  0  0  0  0  0  0  0  0  0
    9.4585   -3.3925   22.7516 H   0  0  0  0  0  0  0  0  0  0  0  0
    9.4799   -2.9987   20.2238 H   0  0  0  0  0  0  0  0  0  0  0  0
    8.2454   -4.2833   20.0991 H   0  0  0  0  0  0  0  0  0  0  0  0
  1  2  2  0
  2  3  1  0
  3  4  1  0
  4  5  2  0
  5  6  1  0
  6  7  2  0
  7  8  1  0
  8  9  2  0
  9 10  1  0
 10 11  2  0
 11 12  1  0
 12 13  2  0
  2 14  1  0
 14 15  1  0
 15 16  1  0
 16 17  2  0
 17 18  1  0
 18 19  1  0
 19 20  1  0
 13  4  1  0
 20 14  1  0
 13  8  1  0
  3 21  1  0
  3 22  1  0
  5 23  1  0
  7 24  1  0
  9 25  1  0
 10 26  1  0
 11 27  1  0
 12 28  1  0
 15 29  1  0
 15 30  1  0
 16 31  1  0
 17 32  1  0
 18 33  1  0
 18 34  1  0
 19 35  1  0
 19 36  1  0
 20 37  1  0
 20 38  1  0
M  END
>  <RMSD>  (179) 
0.16052776162025836

$$$$

     RDKit          3D

 62 67  0  0  0  0  0  0  0  0999 V2000
    7.1869   -3.2714   23.4713 C   0  0  0  0  0  0  0  0  0  0  0  0
    7.4058   -2.2608   22.3521 C   0  0  1  0  0  0  0  0  0  0  0  0
    6.1468   -1.9290   21.5354 C   0  0  0  0  0  0  0  0  0  0  0  0
    6.5117   -0.6720   20.9134 N   0  0  0  0  0  0  0  0  0  0  0  0
    5.8564   -0.0842   19.8096 C   0  0  0  0  0  0  0  0  0  0  0  0
    6.3110   -0.3403   18.5426 C   0  0  0  0  0  0  0  0  0  0  0  0
    5.7780    0.1941   17.4147 N   0  0  0  0  0  0  0  0  0  0  0  0
    4.7660    1.0162   17.5742 C   0  0  0  0  0  0  0  0  0  0  0  0
    4.2113    1.3786   18.8364 C   0  0  0  0  0  0  0  0  0  0  0  0
    3.1268    2.2864   18.9464 C   0  0  0  0  0  0  0  0  0  0  0  0
    2.6134    2.6128   20.1683 C   0  0  0  0  0  0  0  0  0  0  0  0
    3.1547    2.0519   21.3435 C   0  0  0  0  0  0  0  0  0  0  0  0
    4.2070    1.1715   21.2698 C   0  0  0  0  0  0  0  0  0  0  0  0
    4.7631    0.8119   20.0077 C   0  0  0  0  0  0  0  0  0  0  0  0
    7.6465   -0.0971   21.4360 C   0  0  0  0  0  0  0  0  0  0  0  0
    8.2236    0.8497   20.9386 O   0  0  0  0  0  0  0  0  0  0  0  0
    7.9975   -0.8666   22.7255 C   0  0  1  0  0  0  0  0  0  0  0  0
    7.2691   -0.2066   23.9169 C   0  0  0  0  0  0  0  0  0  0  0  0
    7.9064    1.0366   24.3019 N   0  0  0  0  0  0  0  0  0  0  0  0
    7.1548    2.2770   24.3812 C   0  0  0  0  0  0  0  0  0  0  0  0
    7.1104    3.0177   23.0430 C   0  0  0  0  0  0  0  0  0  0  0  0
    6.5111    4.3774   23.2112 N   0  0  0  0  0  0  0  0  0  0  0  0
    5.0069    4.5178   23.5034 C   0  0  0  0  0  0  0  0  0  0  0  0
    4.7876    5.4004   22.2360 C   0  0  0  0  0  0  0  0  0  0  0  0
    6.3271    5.2828   22.0034 C   0  0  0  0  0  0  0  0  0  0  0  0
    9.2134    1.0108   24.7083 C   0  0  0  0  0  0  0  0  0  0  0  0
    9.6792    1.7653   25.5474 O   0  0  0  0  0  0  0  0  0  0  0  0
   10.0459    0.0074   23.9633 C   0  0  0  0  0  0  0  0  0  0  0  0
   11.4206    0.0385   24.1773 C   0  0  0  0  0  0  0  0  0  0  0  0
   12.2682   -0.7067   23.3806 C   0  0  0  0  0  0  0  0  0  0  0  0
   11.7110   -1.5080   22.3835 C   0  0  0  0  0  0  0  0  0  0  0  0
   12.7621   -2.4179   21.3304 Cl  0  0  0  0  0  0  0  0  0  0  0  0
   10.3460   -1.5810   22.1862 C   0  0  0  0  0  0  0  0  0  0  0  0
    9.4799   -0.8389   22.9980 C   0  0  0  0  0  0  0  0  0  0  0  0
    6.8890   -4.2443   23.0611 H   0  0  0  0  0  0  0  0  0  0  0  0
    6.3895   -2.9531   24.1519 H   0  0  0  0  0  0  0  0  0  0  0  0
    8.0960   -3.4225   24.0644 H   0  0  0  0  0  0  0  0  0  0  0  0
    8.1224   -2.6946   21.6474 H   0  0  0  0  0  0  0  0  0  0  0  0
    5.2634   -1.8238   22.1871 H   0  0  0  0  0  0  0  0  0  0  0  0
    5.9145   -2.6801   20.7712 H   0  0  0  0  0  0  0  0  0  0  0  0
    7.1599   -1.0080   18.4062 H   0  0  0  0  0  0  0  0  0  0  0  0
    4.3132    1.4376   16.6771 H   0  0  0  0  0  0  0  0  0  0  0  0
    2.7228    2.7139   18.0347 H   0  0  0  0  0  0  0  0  0  0  0  0
    1.7990    3.3265   20.2522 H   0  0  0  0  0  0  0  0  0  0  0  0
    2.7336    2.3212   22.3077 H   0  0  0  0  0  0  0  0  0  0  0  0
    4.6088    0.7496   22.1867 H   0  0  0  0  0  0  0  0  0  0  0  0
    6.2159   -0.0165   23.6938 H   0  0  0  0  0  0  0  0  0  0  0  0
    7.3137   -0.8968   24.7668 H   0  0  0  0  0  0  0  0  0  0  0  0
    7.6494    2.8613   25.1643 H   0  0  0  0  0  0  0  0  0  0  0  0
    6.1392    2.0356   24.7182 H   0  0  0  0  0  0  0  0  0  0  0  0
    6.5176    2.4593   22.3141 H   0  0  0  0  0  0  0  0  0  0  0  0
    8.1060    3.1456   22.6222 H   0  0  0  0  0  0  0  0  0  0  0  0
    7.0835    4.8572   23.9164 H   0  0  0  0  0  0  0  0  0  0  0  0
    4.8644    5.0126   24.4594 H   0  0  0  0  0  0  0  0  0  0  0  0
    4.5081    3.5546   23.4769 H   0  0  0  0  0  0  0  0  0  0  0  0
    4.4058    6.4105   22.4067 H   0  0  0  0  0  0  0  0  0  0  0  0
    4.1926    4.8993   21.4632 H   0  0  0  0  0  0  0  0  0  0  0  0
    6.6209    4.7893   21.0801 H   0  0  0  0  0  0  0  0  0  0  0  0
    6.8844    6.2051   22.1511 H   0  0  0  0  0  0  0  0  0  0  0  0
   11.7946    0.6914   24.9572 H   0  0  0  0  0  0  0  0  0  0  0  0
   13.3452   -0.6525   23.4938 H   0  0  0  0  0  0  0  0  0  0  0  0
    9.9730   -2.2142   21.3870 H   0  0  0  0  0  0  0  0  0  0  0  0
  1  2  1  0
  2  3  1  0
  3  4  1  0
  4  5  1  0
  5  6  2  0
  6  7  1  0
  7  8  2  0
  8  9  1  0
  9 10  2  0
 10 11  1  0
 11 12  2  0
 12 13  1  0
 13 14  2  0
  4 15  1  0
 15 16  2  0
 15 17  1  0
 17 18  1  1
 18 19  1  0
 19 20  1  0
 20 21  1  0
 21 22  1  0
 22 23  1  0
 23 24  1  0
 24 25  1  0
 19 26  1  0
 26 27  2  0
 26 28  1  0
 28 29  2  0
 29 30  1  0
 30 31  2  0
 31 32  1  0
 31 33  1  0
 33 34  2  0
 17  2  1  0
 25 22  1  0
 34 28  1  0
 14  5  1  0
 34 17  1  0
 14  9  1  0
  1 35  1  0
  1 36  1  0
  1 37  1  0
  2 38  1  6
  3 39  1  0
  3 40  1  0
  6 41  1  0
  8 42  1  0
 10 43  1  0
 11 44  1  0
 12 45  1  0
 13 46  1  0
 18 47  1  0
 18 48  1  0
 20 49  1  0
 20 50  1  0
 21 51  1  0
 21 52  1  0
 22 53  1  0
 23 54  1  0
 23 55  1  0
 24 56  1  0
 24 57  1  0
 25 58  1  0
 25 59  1  0
 29 60  1  0
 30 61  1  0
 33 62  1  0
M  CHG  1  22   1
M  END
>  <RMSD>  (180) 
0.1792650615136136

$$$$

     RDKit          3D

 43 45  0  0  0  0  0  0  0  0999 V2000
   -9.4645   -0.8245  -25.7194 C   0  0  0  0  0  0  0  0  0  0  0  0
   -9.7679   -2.2510  -25.2257 C   0  0  0  0  0  0  0  0  0  0  0  0
  -10.6361   -3.0023  -26.2503 C   0  0  0  0  0  0  0  0  0  0  0  0
  -10.5538   -2.1525  -23.8904 C   0  0  0  0  0  0  0  0  0  0  0  0
   -9.8771   -2.8962  -22.7529 C   0  0  0  0  0  0  0  0  0  0  0  0
   -8.4816   -2.4897  -22.6280 N   0  0  0  0  0  0  0  0  0  0  0  0
   -8.1026   -1.9156  -21.4385 C   0  0  0  0  0  0  0  0  0  0  0  0
   -8.8970   -1.3109  -20.7392 O   0  0  0  0  0  0  0  0  0  0  0  0
   -6.6742   -2.2088  -20.9696 C   0  0  0  0  0  0  0  0  0  0  0  0
   -6.1051   -1.2282  -19.9824 C   0  0  0  0  0  0  0  0  0  0  0  0
   -6.5164   -1.2596  -18.6728 C   0  0  0  0  0  0  0  0  0  0  0  0
   -6.0329   -0.4747  -17.6738 N   0  0  0  0  0  0  0  0  0  0  0  0
   -5.0877    0.3786  -18.0023 C   0  0  0  0  0  0  0  0  0  0  0  0
   -4.5764    0.5392  -19.3225 C   0  0  0  0  0  0  0  0  0  0  0  0
   -3.5597    1.4790  -19.6320 C   0  0  0  0  0  0  0  0  0  0  0  0
   -3.1035    1.6096  -20.9142 C   0  0  0  0  0  0  0  0  0  0  0  0
   -3.6430    0.8186  -21.9521 C   0  0  0  0  0  0  0  0  0  0  0  0
   -4.6127   -0.1113  -21.6774 C   0  0  0  0  0  0  0  0  0  0  0  0
   -5.1036   -0.2832  -20.3516 C   0  0  0  0  0  0  0  0  0  0  0  0
   -7.6296   -2.5786  -23.8175 C   0  0  0  0  0  0  0  0  0  0  0  0
   -8.4657   -3.0497  -25.0100 C   0  0  0  0  0  0  0  0  0  0  0  0
   -8.9709   -0.8430  -26.6986 H   0  0  0  0  0  0  0  0  0  0  0  0
  -10.3951   -0.2495  -25.8119 H   0  0  0  0  0  0  0  0  0  0  0  0
   -8.8141   -0.2701  -25.0311 H   0  0  0  0  0  0  0  0  0  0  0  0
  -10.2723   -2.9105  -27.2825 H   0  0  0  0  0  0  0  0  0  0  0  0
  -10.6716   -4.0679  -26.0217 H   0  0  0  0  0  0  0  0  0  0  0  0
  -11.6616   -2.6159  -26.2116 H   0  0  0  0  0  0  0  0  0  0  0  0
  -10.6379   -1.1040  -23.5838 H   0  0  0  0  0  0  0  0  0  0  0  0
  -11.5778   -2.5253  -24.0117 H   0  0  0  0  0  0  0  0  0  0  0  0
  -10.3624   -2.6487  -21.8075 H   0  0  0  0  0  0  0  0  0  0  0  0
   -9.9367   -3.9845  -22.9012 H   0  0  0  0  0  0  0  0  0  0  0  0
   -6.0142   -2.3608  -21.8265 H   0  0  0  0  0  0  0  0  0  0  0  0
   -6.7470   -3.1919  -20.4760 H   0  0  0  0  0  0  0  0  0  0  0  0
   -7.2944   -1.9674  -18.3796 H   0  0  0  0  0  0  0  0  0  0  0  0
   -4.6879    1.0028  -17.2006 H   0  0  0  0  0  0  0  0  0  0  0  0
   -3.1535    2.0906  -18.8279 H   0  0  0  0  0  0  0  0  0  0  0  0
   -2.3403    2.3469  -21.1523 H   0  0  0  0  0  0  0  0  0  0  0  0
   -3.2856    0.9501  -22.9726 H   0  0  0  0  0  0  0  0  0  0  0  0
   -5.0140   -0.7093  -22.4934 H   0  0  0  0  0  0  0  0  0  0  0  0
   -6.8079   -3.2909  -23.6551 H   0  0  0  0  0  0  0  0  0  0  0  0
   -7.1599   -1.6046  -24.0375 H   0  0  0  0  0  0  0  0  0  0  0  0
   -8.7303   -4.1001  -24.8301 H   0  0  0  0  0  0  0  0  0  0  0  0
   -7.8690   -3.0305  -25.9282 H   0  0  0  0  0  0  0  0  0  0  0  0
  1  2  1  0
  2  3  1  0
  2  4  1  0
  4  5  1  0
  5  6  1  0
  6  7  1  0
  7  8  2  0
  7  9  1  0
  9 10  1  0
 10 11  2  0
 11 12  1  0
 12 13  2  0
 13 14  1  0
 14 15  2  0
 15 16  1  0
 16 17  2  0
 17 18  1  0
 18 19  2  0
  6 20  1  0
 20 21  1  0
 21  2  1  0
 19 10  1  0
 19 14  1  0
  1 22  1  0
  1 23  1  0
  1 24  1  0
  3 25  1  0
  3 26  1  0
  3 27  1  0
  4 28  1  0
  4 29  1  0
  5 30  1  0
  5 31  1  0
  9 32  1  0
  9 33  1  0
 11 34  1  0
 13 35  1  0
 15 36  1  0
 16 37  1  0
 17 38  1  0
 18 39  1  0
 20 40  1  0
 20 41  1  0
 21 42  1  0
 21 43  1  0
M  END
>  <RMSD>  (181) 
0.03633758726431307

$$$$

     RDKit          3D

 64 68  0  0  0  0  0  0  0  0999 V2000
   -6.7701    2.6294  -23.2063 C   0  0  0  0  0  0  0  0  0  0  0  0
   -7.3386    1.4522  -23.8365 N   0  0  0  0  0  0  0  0  0  0  0  0
   -6.8464    1.0268  -25.0222 C   0  0  0  0  0  0  0  0  0  0  0  0
   -6.0267    1.6563  -25.6747 O   0  0  0  0  0  0  0  0  0  0  0  0
   -7.3562   -0.3126  -25.5685 C   0  0  0  0  0  0  0  0  0  0  0  0
   -8.1661   -1.1266  -24.6901 N   0  0  0  0  0  0  0  0  0  0  0  0
   -7.5809   -2.3159  -24.0964 C   0  0  0  0  0  0  0  0  0  0  0  0
   -8.2182   -2.6474  -22.7243 C   0  0  2  0  0  0  0  0  0  0  0  0
   -7.8595   -1.5369  -21.7033 C   0  0  0  0  0  0  0  0  0  0  0  0
   -8.3801   -0.4465  -21.5696 O   0  0  0  0  0  0  0  0  0  0  0  0
   -6.7958   -1.9825  -20.9533 N   0  0  0  0  0  0  0  0  0  0  0  0
   -6.1663   -1.1557  -19.9920 C   0  0  0  0  0  0  0  0  0  0  0  0
   -6.5462   -1.2406  -18.6783 C   0  0  0  0  0  0  0  0  0  0  0  0
   -6.0194   -0.4929  -17.6748 N   0  0  0  0  0  0  0  0  0  0  0  0
   -5.0784    0.3624  -18.0036 C   0  0  0  0  0  0  0  0  0  0  0  0
   -4.5830    0.5432  -19.3292 C   0  0  0  0  0  0  0  0  0  0  0  0
   -3.5624    1.4821  -19.6345 C   0  0  0  0  0  0  0  0  0  0  0  0
   -3.0988    1.6175  -20.9145 C   0  0  0  0  0  0  0  0  0  0  0  0
   -3.6286    0.8205  -21.9540 C   0  0  0  0  0  0  0  0  0  0  0  0
   -4.6256   -0.0855  -21.6892 C   0  0  0  0  0  0  0  0  0  0  0  0
   -5.1334   -0.2429  -20.3668 C   0  0  0  0  0  0  0  0  0  0  0  0
   -6.3254   -3.3012  -21.3120 C   0  0  0  0  0  0  0  0  0  0  0  0
   -7.5398   -3.8790  -22.0585 C   0  0  2  0  0  0  0  0  0  0  0  0
   -7.2248   -5.0587  -22.9802 C   0  0  0  0  0  0  0  0  0  0  0  0
   -6.6802   -6.5159  -22.0921 S   0  0  0  0  0  0  0  0  0  0  0  0
   -7.0829   -6.3897  -20.7023 O   0  0  0  0  0  0  0  0  0  0  0  0
   -7.0394   -7.6713  -22.9024 O   0  0  0  0  0  0  0  0  0  0  0  0
   -5.0391   -6.3829  -22.0704 N   0  0  0  0  0  0  0  0  0  0  0  0
   -4.2173   -6.7905  -23.1902 C   0  0  0  0  0  0  0  0  0  0  0  0
   -9.7171   -2.7303  -22.9349 C   0  0  0  0  0  0  0  0  0  0  0  0
  -10.5511   -3.6073  -22.2278 C   0  0  0  0  0  0  0  0  0  0  0  0
  -11.9216   -3.5248  -22.3885 C   0  0  0  0  0  0  0  0  0  0  0  0
  -12.7063   -4.3597  -21.6827 F   0  0  0  0  0  0  0  0  0  0  0  0
  -12.5300   -2.6021  -23.2329 C   0  0  0  0  0  0  0  0  0  0  0  0
  -11.7113   -1.7499  -23.9476 C   0  0  0  0  0  0  0  0  0  0  0  0
  -10.3240   -1.8241  -23.8195 C   0  0  0  0  0  0  0  0  0  0  0  0
   -9.5140   -0.8929  -24.6658 C   0  0  0  0  0  0  0  0  0  0  0  0
  -10.0224    0.0333  -25.2829 O   0  0  0  0  0  0  0  0  0  0  0  0
   -6.8694    3.5155  -23.8447 H   0  0  0  0  0  0  0  0  0  0  0  0
   -5.7031    2.4819  -22.9863 H   0  0  0  0  0  0  0  0  0  0  0  0
   -7.3026    2.8051  -22.2668 H   0  0  0  0  0  0  0  0  0  0  0  0
   -7.9653    0.8745  -23.2858 H   0  0  0  0  0  0  0  0  0  0  0  0
   -6.4646   -0.8724  -25.8672 H   0  0  0  0  0  0  0  0  0  0  0  0
   -7.9277   -0.0938  -26.4753 H   0  0  0  0  0  0  0  0  0  0  0  0
   -6.5053   -2.1446  -23.9746 H   0  0  0  0  0  0  0  0  0  0  0  0
   -7.7158   -3.1785  -24.7640 H   0  0  0  0  0  0  0  0  0  0  0  0
   -7.3330   -1.9379  -18.3948 H   0  0  0  0  0  0  0  0  0  0  0  0
   -4.6433    0.9613  -17.2021 H   0  0  0  0  0  0  0  0  0  0  0  0
   -3.1675    2.0896  -18.8260 H   0  0  0  0  0  0  0  0  0  0  0  0
   -2.3263    2.3441  -21.1491 H   0  0  0  0  0  0  0  0  0  0  0  0
   -3.2694    0.9490  -22.9725 H   0  0  0  0  0  0  0  0  0  0  0  0
   -5.0263   -0.6938  -22.4955 H   0  0  0  0  0  0  0  0  0  0  0  0
   -5.4354   -3.2489  -21.9623 H   0  0  0  0  0  0  0  0  0  0  0  0
   -6.0555   -3.8712  -20.4181 H   0  0  0  0  0  0  0  0  0  0  0  0
   -8.2314   -4.2326  -21.2932 H   0  0  0  0  0  0  0  0  0  0  0  0
   -6.4383   -4.8153  -23.7059 H   0  0  0  0  0  0  0  0  0  0  0  0
   -8.1136   -5.3709  -23.5341 H   0  0  0  0  0  0  0  0  0  0  0  0
   -4.6825   -5.6959  -21.4202 H   0  0  0  0  0  0  0  0  0  0  0  0
   -3.1769   -6.8211  -22.8660 H   0  0  0  0  0  0  0  0  0  0  0  0
   -4.5119   -7.7899  -23.5032 H   0  0  0  0  0  0  0  0  0  0  0  0
   -4.2780   -6.1365  -24.0672 H   0  0  0  0  0  0  0  0  0  0  0  0
  -10.1671   -4.3585  -21.5465 H   0  0  0  0  0  0  0  0  0  0  0  0
  -13.6140   -2.5765  -23.3035 H   0  0  0  0  0  0  0  0  0  0  0  0
  -12.1220   -1.0065  -24.6224 H   0  0  0  0  0  0  0  0  0  0  0  0
  1  2  1  0
  2  3  1  0
  3  4  2  0
  3  5  1  0
  5  6  1  0
  6  7  1  0
  8  7  1  6
  8  9  1  0
  9 10  2  0
  9 11  1  0
 11 12  1  0
 12 13  2  0
 13 14  1  0
 14 15  2  0
 15 16  1  0
 16 17  2  0
 17 18  1  0
 18 19  2  0
 19 20  1  0
 20 21  2  0
 11 22  1  0
 22 23  1  0
 23 24  1  0
 24 25  1  0
 25 26  2  0
 25 27  2  0
 25 28  1  0
 28 29  1  0
  8 30  1  0
 30 31  2  0
 31 32  1  0
 32 33  1  0
 32 34  2  0
 34 35  1  0
 35 36  2  0
 36 37  1  0
 37 38  2  0
 37  6  1  0
 23  8  1  0
 36 30  1  0
 21 12  1  0
 21 16  1  0
  1 39  1  0
  1 40  1  0
  1 41  1  0
  2 42  1  0
  5 43  1  0
  5 44  1  0
  7 45  1  0
  7 46  1  0
 13 47  1  0
 15 48  1  0
 17 49  1  0
 18 50  1  0
 19 51  1  0
 20 52  1  0
 22 53  1  0
 22 54  1  0
 23 55  1  1
 24 56  1  0
 24 57  1  0
 28 58  1  0
 29 59  1  0
 29 60  1  0
 29 61  1  0
 31 62  1  0
 34 63  1  0
 35 64  1  0
M  END
>  <RMSD>  (182) 
0.05942918957786141

$$$$

     RDKit          3D

 66 71  0  0  0  0  0  0  0  0999 V2000
   -6.7603    2.6549  -23.2097 C   0  0  0  0  0  0  0  0  0  0  0  0
   -7.3259    1.4823  -23.8506 N   0  0  0  0  0  0  0  0  0  0  0  0
   -6.8390    1.0556  -25.0352 C   0  0  0  0  0  0  0  0  0  0  0  0
   -6.0174    1.6843  -25.6878 O   0  0  0  0  0  0  0  0  0  0  0  0
   -7.3454   -0.2951  -25.5708 C   0  0  0  0  0  0  0  0  0  0  0  0
   -8.1594   -1.1025  -24.6890 N   0  0  0  0  0  0  0  0  0  0  0  0
   -7.5808   -2.3037  -24.1181 C   0  0  0  0  0  0  0  0  0  0  0  0
   -8.2291   -2.6557  -22.7612 C   0  0  2  0  0  0  0  0  0  0  0  0
   -7.8706   -1.5554  -21.7185 C   0  0  0  0  0  0  0  0  0  0  0  0
   -8.3900   -0.4648  -21.5785 O   0  0  0  0  0  0  0  0  0  0  0  0
   -6.8124   -2.0049  -20.9615 N   0  0  0  0  0  0  0  0  0  0  0  0
   -6.1787   -1.1637  -20.0026 C   0  0  0  0  0  0  0  0  0  0  0  0
   -6.5501   -1.2343  -18.6854 C   0  0  0  0  0  0  0  0  0  0  0  0
   -6.0107   -0.4921  -17.6821 N   0  0  0  0  0  0  0  0  0  0  0  0
   -5.0681    0.3609  -18.0057 C   0  0  0  0  0  0  0  0  0  0  0  0
   -4.5786    0.5450  -19.3328 C   0  0  0  0  0  0  0  0  0  0  0  0
   -3.5538    1.4836  -19.6336 C   0  0  0  0  0  0  0  0  0  0  0  0
   -3.0890    1.6193  -20.9150 C   0  0  0  0  0  0  0  0  0  0  0  0
   -3.6239    0.8198  -21.9506 C   0  0  0  0  0  0  0  0  0  0  0  0
   -4.6237   -0.0858  -21.6835 C   0  0  0  0  0  0  0  0  0  0  0  0
   -5.1409   -0.2423  -20.3677 C   0  0  0  0  0  0  0  0  0  0  0  0
   -6.3475   -3.3261  -21.3420 C   0  0  0  0  0  0  0  0  0  0  0  0
   -7.5504   -3.9025  -22.1190 C   0  0  2  0  0  0  0  0  0  0  0  0
   -7.1208   -5.0551  -23.0416 C   0  0  0  0  0  0  0  0  0  0  0  0
   -8.2120   -5.6587  -23.7803 N   0  0  0  0  0  0  0  0  0  0  0  0
   -8.0223   -6.6776  -24.6755 C   0  0  0  0  0  0  0  0  0  0  0  0
   -6.7497   -7.2196  -24.9901 C   0  0  0  0  0  0  0  0  0  0  0  0
   -6.5919   -8.1421  -25.9277 N   0  0  0  0  0  0  0  0  0  0  0  0
   -7.6890   -8.5656  -26.5644 C   0  0  0  0  0  0  0  0  0  0  0  0
   -8.9405   -8.0920  -26.2100 C   0  0  0  0  0  0  0  0  0  0  0  0
   -9.1135   -7.1589  -25.2717 N   0  0  0  0  0  0  0  0  0  0  0  0
   -9.7288   -2.7222  -22.9666 C   0  0  0  0  0  0  0  0  0  0  0  0
  -10.5543   -3.5904  -22.2424 C   0  0  0  0  0  0  0  0  0  0  0  0
  -11.9325   -3.5101  -22.3691 C   0  0  0  0  0  0  0  0  0  0  0  0
  -12.9483   -4.5700  -21.4293 Cl  0  0  0  0  0  0  0  0  0  0  0  0
  -12.5299   -2.5869  -23.2275 C   0  0  0  0  0  0  0  0  0  0  0  0
  -11.7187   -1.7406  -23.9584 C   0  0  0  0  0  0  0  0  0  0  0  0
  -10.3329   -1.8064  -23.8402 C   0  0  0  0  0  0  0  0  0  0  0  0
   -9.5061   -0.8591  -24.6628 C   0  0  0  0  0  0  0  0  0  0  0  0
   -9.9905    0.0953  -25.2594 O   0  0  0  0  0  0  0  0  0  0  0  0
   -6.8610    3.5430  -23.8437 H   0  0  0  0  0  0  0  0  0  0  0  0
   -7.2973    2.8079  -22.2702 H   0  0  0  0  0  0  0  0  0  0  0  0
   -5.6938    2.5047  -22.9941 H   0  0  0  0  0  0  0  0  0  0  0  0
   -8.0380    0.9564  -23.3617 H   0  0  0  0  0  0  0  0  0  0  0  0
   -7.9012   -0.0876  -26.4917 H   0  0  0  0  0  0  0  0  0  0  0  0
   -6.4445   -0.8557  -25.8359 H   0  0  0  0  0  0  0  0  0  0  0  0
   -6.5102   -2.1237  -23.9719 H   0  0  0  0  0  0  0  0  0  0  0  0
   -7.7077   -3.1569  -24.7980 H   0  0  0  0  0  0  0  0  0  0  0  0
   -7.3285   -1.9330  -18.3869 H   0  0  0  0  0  0  0  0  0  0  0  0
   -4.6528    0.9598  -17.1933 H   0  0  0  0  0  0  0  0  0  0  0  0
   -3.1659    2.0948  -18.8224 H   0  0  0  0  0  0  0  0  0  0  0  0
   -2.3243    2.3555  -21.1516 H   0  0  0  0  0  0  0  0  0  0  0  0
   -3.2712    0.9508  -22.9723 H   0  0  0  0  0  0  0  0  0  0  0  0
   -5.0311   -0.6956  -22.4833 H   0  0  0  0  0  0  0  0  0  0  0  0
   -5.4511   -3.2692  -21.9827 H   0  0  0  0  0  0  0  0  0  0  0  0
   -6.0683   -3.8964  -20.4515 H   0  0  0  0  0  0  0  0  0  0  0  0
   -8.2690   -4.2844  -21.3866 H   0  0  0  0  0  0  0  0  0  0  0  0
   -6.6343   -5.8432  -22.4409 H   0  0  0  0  0  0  0  0  0  0  0  0
   -6.3551   -4.6956  -23.7574 H   0  0  0  0  0  0  0  0  0  0  0  0
   -9.1847   -5.3821  -23.6963 H   0  0  0  0  0  0  0  0  0  0  0  0
   -5.8491   -6.8846  -24.4795 H   0  0  0  0  0  0  0  0  0  0  0  0
   -7.5475   -9.2779  -27.3732 H   0  0  0  0  0  0  0  0  0  0  0  0
   -9.8349   -8.4575  -26.7184 H   0  0  0  0  0  0  0  0  0  0  0  0
  -10.1339   -4.3216  -21.5620 H   0  0  0  0  0  0  0  0  0  0  0  0
  -13.6088   -2.5381  -23.3121 H   0  0  0  0  0  0  0  0  0  0  0  0
  -12.1139   -0.9926  -24.6354 H   0  0  0  0  0  0  0  0  0  0  0  0
  1  2  1  0
  2  3  1  0
  3  4  2  0
  3  5  1  0
  5  6  1  0
  6  7  1  0
  8  7  1  6
  8  9  1  0
  9 10  2  0
  9 11  1  0
 11 12  1  0
 12 13  2  0
 13 14  1  0
 14 15  2  0
 15 16  1  0
 16 17  2  0
 17 18  1  0
 18 19  2  0
 19 20  1  0
 20 21  2  0
 11 22  1  0
 22 23  1  0
 23 24  1  0
 24 25  1  0
 25 26  1  0
 26 27  2  0
 27 28  1  0
 28 29  2  0
 29 30  1  0
 30 31  2  0
  8 32  1  0
 32 33  2  0
 33 34  1  0
 34 35  1  0
 34 36  2  0
 36 37  1  0
 37 38  2  0
 38 39  1  0
 39 40  2  0
 39  6  1  0
 23  8  1  0
 31 26  1  0
 38 32  1  0
 21 12  1  0
 21 16  1  0
  1 41  1  0
  1 42  1  0
  1 43  1  0
  2 44  1  0
  5 45  1  0
  5 46  1  0
  7 47  1  0
  7 48  1  0
 13 49  1  0
 15 50  1  0
 17 51  1  0
 18 52  1  0
 19 53  1  0
 20 54  1  0
 22 55  1  0
 22 56  1  0
 23 57  1  1
 24 58  1  0
 24 59  1  0
 25 60  1  0
 27 61  1  0
 29 62  1  0
 30 63  1  0
 33 64  1  0
 36 65  1  0
 37 66  1  0
M  END
>  <RMSD>  (183) 
0.0624668385126598

$$$$

     RDKit          3D

 56 61  0  0  0  0  0  0  0  0999 V2000
    7.0670   -3.2857   23.5074 C   0  0  0  0  0  0  0  0  0  0  0  0
    7.3600   -2.2803   22.3976 C   0  0  1  0  0  0  0  0  0  0  0  0
    6.1411   -1.9287   21.5313 C   0  0  0  0  0  0  0  0  0  0  0  0
    6.5339   -0.6619   20.9406 N   0  0  0  0  0  0  0  0  0  0  0  0
    5.8840   -0.0588   19.8292 C   0  0  0  0  0  0  0  0  0  0  0  0
    6.3049   -0.3448   18.5572 C   0  0  0  0  0  0  0  0  0  0  0  0
    5.7614    0.1755   17.4252 N   0  0  0  0  0  0  0  0  0  0  0  0
    4.7594    1.0115   17.5703 C   0  0  0  0  0  0  0  0  0  0  0  0
    4.2017    1.3834   18.8267 C   0  0  0  0  0  0  0  0  0  0  0  0
    3.1178    2.2984   18.9430 C   0  0  0  0  0  0  0  0  0  0  0  0
    2.6095    2.6204   20.1682 C   0  0  0  0  0  0  0  0  0  0  0  0
    3.1504    2.0415   21.3414 C   0  0  0  0  0  0  0  0  0  0  0  0
    4.2071    1.1702   21.2604 C   0  0  0  0  0  0  0  0  0  0  0  0
    4.7680    0.8244   20.0029 C   0  0  0  0  0  0  0  0  0  0  0  0
    7.5469   -0.0234   21.6254 C   0  0  0  0  0  0  0  0  0  0  0  0
    8.0153    1.0451   21.3050 O   0  0  0  0  0  0  0  0  0  0  0  0
    7.9295   -0.9040   22.8412 C   0  0  1  0  0  0  0  0  0  0  0  0
    7.2195   -0.3799   24.1172 C   0  0  0  0  0  0  0  0  0  0  0  0
    7.7058    0.9271   24.5132 N   0  0  0  0  0  0  0  0  0  0  0  0
    6.7800    1.8181   25.1887 C   0  0  0  0  0  0  0  0  0  0  0  0
    6.1235    2.8135   24.2773 C   0  0  0  0  0  0  0  0  0  0  0  0
    4.8142    3.3232   24.3541 C   0  0  0  0  0  0  0  0  0  0  0  0
    4.5820    4.2403   23.4202 N   0  0  0  0  0  0  0  0  0  0  0  0
    5.7336    4.3172   22.7475 N   0  0  0  0  0  0  0  0  0  0  0  0
    6.6920    3.4857   23.2178 C   0  0  0  0  0  0  0  0  0  0  0  0
    9.0221    1.2774   24.4349 C   0  0  0  0  0  0  0  0  0  0  0  0
    9.4265    2.3608   24.8417 O   0  0  0  0  0  0  0  0  0  0  0  0
    9.9319    0.2569   23.8185 C   0  0  0  0  0  0  0  0  0  0  0  0
   11.3074    0.4293   23.9686 C   0  0  0  0  0  0  0  0  0  0  0  0
   12.1973   -0.4792   23.4294 C   0  0  0  0  0  0  0  0  0  0  0  0
   11.6724   -1.5724   22.7434 C   0  0  0  0  0  0  0  0  0  0  0  0
   12.5240   -2.4626   22.2025 F   0  0  0  0  0  0  0  0  0  0  0  0
   10.3162   -1.7723   22.5801 C   0  0  0  0  0  0  0  0  0  0  0  0
    9.4159   -0.8408   23.1093 C   0  0  0  0  0  0  0  0  0  0  0  0
    6.7851   -4.2648   23.0992 H   0  0  0  0  0  0  0  0  0  0  0  0
    6.2440   -2.9422   24.1464 H   0  0  0  0  0  0  0  0  0  0  0  0
    7.9408   -3.4303   24.1537 H   0  0  0  0  0  0  0  0  0  0  0  0
    8.0839   -2.7297   21.7123 H   0  0  0  0  0  0  0  0  0  0  0  0
    5.2295   -1.8463   22.1521 H   0  0  0  0  0  0  0  0  0  0  0  0
    5.9415   -2.6702   20.7506 H   0  0  0  0  0  0  0  0  0  0  0  0
    7.1383   -1.0282   18.4073 H   0  0  0  0  0  0  0  0  0  0  0  0
    4.3349    1.4390   16.6593 H   0  0  0  0  0  0  0  0  0  0  0  0
    2.7114    2.7431   18.0348 H   0  0  0  0  0  0  0  0  0  0  0  0
    1.7875    3.3274   20.2545 H   0  0  0  0  0  0  0  0  0  0  0  0
    2.7372    2.2998   22.3109 H   0  0  0  0  0  0  0  0  0  0  0  0
    4.6294    0.7268   22.1593 H   0  0  0  0  0  0  0  0  0  0  0  0
    6.1417   -0.3004   23.9326 H   0  0  0  0  0  0  0  0  0  0  0  0
    7.3758   -1.0866   24.9472 H   0  0  0  0  0  0  0  0  0  0  0  0
    6.0053    1.2114   25.6750 H   0  0  0  0  0  0  0  0  0  0  0  0
    7.3337    2.3372   25.9789 H   0  0  0  0  0  0  0  0  0  0  0  0
    4.0268    3.0561   25.0495 H   0  0  0  0  0  0  0  0  0  0  0  0
    5.8029    4.9577   21.9758 H   0  0  0  0  0  0  0  0  0  0  0  0
    7.6813    3.4395   22.7848 H   0  0  0  0  0  0  0  0  0  0  0  0
   11.6652    1.2928   24.5185 H   0  0  0  0  0  0  0  0  0  0  0  0
   13.2744   -0.3588   23.5149 H   0  0  0  0  0  0  0  0  0  0  0  0
    9.9871   -2.6537   22.0388 H   0  0  0  0  0  0  0  0  0  0  0  0
  1  2  1  0
  2  3  1  0
  3  4  1  0
  4  5  1  0
  5  6  2  0
  6  7  1  0
  7  8  2  0
  8  9  1  0
  9 10  2  0
 10 11  1  0
 11 12  2  0
 12 13  1  0
 13 14  2  0
  4 15  1  0
 15 16  2  0
 15 17  1  0
 17 18  1  1
 18 19  1  0
 19 20  1  0
 20 21  1  0
 21 22  1  0
 22 23  2  0
 23 24  1  0
 24 25  1  0
 19 26  1  0
 26 27  2  0
 26 28  1  0
 28 29  2  0
 29 30  1  0
 30 31  2  0
 31 32  1  0
 31 33  1  0
 33 34  2  0
 17  2  1  0
 25 21  2  0
 34 28  1  0
 14  5  1  0
 34 17  1  0
 14  9  1  0
  1 35  1  0
  1 36  1  0
  1 37  1  0
  2 38  1  6
  3 39  1  0
  3 40  1  0
  6 41  1  0
  8 42  1  0
 10 43  1  0
 11 44  1  0
 12 45  1  0
 13 46  1  0
 18 47  1  0
 18 48  1  0
 20 49  1  0
 20 50  1  0
 22 51  1  0
 24 52  1  0
 25 53  1  0
 29 54  1  0
 30 55  1  0
 33 56  1  0
M  END
>  <RMSD>  (184) 
0.17191731106259503

$$$$

     RDKit          3D

 60 65  0  0  0  0  0  0  0  0999 V2000
   -9.1698   -6.4492  -23.1264 C   0  0  0  0  0  0  0  0  0  0  0  0
   -8.3866   -5.4491  -23.7229 O   0  0  0  0  0  0  0  0  0  0  0  0
   -7.2572   -5.0645  -22.9722 C   0  0  0  0  0  0  0  0  0  0  0  0
   -7.5674   -3.9116  -22.0204 C   0  0  1  0  0  0  0  0  0  0  0  0
   -6.3269   -3.3306  -21.3296 C   0  0  0  0  0  0  0  0  0  0  0  0
   -6.7774   -2.0005  -20.9513 N   0  0  0  0  0  0  0  0  0  0  0  0
   -6.1540   -1.1739  -19.9864 C   0  0  0  0  0  0  0  0  0  0  0  0
   -6.5490   -1.2381  -18.6738 C   0  0  0  0  0  0  0  0  0  0  0  0
   -6.0226   -0.4845  -17.6760 N   0  0  0  0  0  0  0  0  0  0  0  0
   -5.0754    0.3617  -18.0081 C   0  0  0  0  0  0  0  0  0  0  0  0
   -4.5786    0.5354  -19.3331 C   0  0  0  0  0  0  0  0  0  0  0  0
   -3.5616    1.4829  -19.6318 C   0  0  0  0  0  0  0  0  0  0  0  0
   -3.1030    1.6197  -20.9131 C   0  0  0  0  0  0  0  0  0  0  0  0
   -3.6394    0.8288  -21.9552 C   0  0  0  0  0  0  0  0  0  0  0  0
   -4.6353   -0.0818  -21.6950 C   0  0  0  0  0  0  0  0  0  0  0  0
   -5.1244   -0.2592  -20.3666 C   0  0  0  0  0  0  0  0  0  0  0  0
   -7.9563   -1.6118  -21.5541 C   0  0  0  0  0  0  0  0  0  0  0  0
   -8.5910   -0.6212  -21.2473 O   0  0  0  0  0  0  0  0  0  0  0  0
   -8.2799   -2.6690  -22.6407 C   0  0  1  0  0  0  0  0  0  0  0  0
   -7.6214   -2.3024  -23.9978 C   0  0  0  0  0  0  0  0  0  0  0  0
   -8.3244   -1.2282  -24.6720 N   0  0  0  0  0  0  0  0  0  0  0  0
   -7.6540    0.0024  -25.0841 C   0  0  0  0  0  0  0  0  0  0  0  0
   -8.0849    1.2389  -24.3087 C   0  0  0  0  0  0  0  0  0  0  0  0
   -7.3615    1.9879  -23.3497 C   0  0  0  0  0  0  0  0  0  0  0  0
   -8.0400    3.0474  -22.9162 N   0  0  0  0  0  0  0  0  0  0  0  0
   -9.2102    2.9602  -23.5633 N   0  0  0  0  0  0  0  0  0  0  0  0
   -9.2941    1.8996  -24.3935 C   0  0  0  0  0  0  0  0  0  0  0  0
   -9.6653   -1.3270  -24.9225 C   0  0  0  0  0  0  0  0  0  0  0  0
  -10.2228   -0.6668  -25.7917 O   0  0  0  0  0  0  0  0  0  0  0  0
  -10.4159   -2.1962  -23.9697 C   0  0  0  0  0  0  0  0  0  0  0  0
  -11.7985   -2.2654  -24.1287 C   0  0  0  0  0  0  0  0  0  0  0  0
  -12.5780   -2.8923  -23.1794 C   0  0  0  0  0  0  0  0  0  0  0  0
  -11.9440   -3.4515  -22.0712 C   0  0  0  0  0  0  0  0  0  0  0  0
  -12.9014   -4.2180  -20.8378 Cl  0  0  0  0  0  0  0  0  0  0  0  0
  -10.5691   -3.4184  -21.9146 C   0  0  0  0  0  0  0  0  0  0  0  0
   -9.7706   -2.7915  -22.8747 C   0  0  0  0  0  0  0  0  0  0  0  0
  -10.0465   -6.5922  -23.7587 H   0  0  0  0  0  0  0  0  0  0  0  0
   -9.5142   -6.1716  -22.1198 H   0  0  0  0  0  0  0  0  0  0  0  0
   -8.6193   -7.3991  -23.0704 H   0  0  0  0  0  0  0  0  0  0  0  0
   -6.4962   -4.7399  -23.6927 H   0  0  0  0  0  0  0  0  0  0  0  0
   -6.8420   -5.9198  -22.4134 H   0  0  0  0  0  0  0  0  0  0  0  0
   -8.2219   -4.2845  -21.2289 H   0  0  0  0  0  0  0  0  0  0  0  0
   -6.0265   -3.9052  -20.4484 H   0  0  0  0  0  0  0  0  0  0  0  0
   -5.4656   -3.2988  -22.0167 H   0  0  0  0  0  0  0  0  0  0  0  0
   -7.3419   -1.9263  -18.3899 H   0  0  0  0  0  0  0  0  0  0  0  0
   -4.6496    0.9703  -17.2111 H   0  0  0  0  0  0  0  0  0  0  0  0
   -3.1627    2.0895  -18.8208 H   0  0  0  0  0  0  0  0  0  0  0  0
   -2.3174    2.3366  -21.1398 H   0  0  0  0  0  0  0  0  0  0  0  0
   -3.2608    0.9472  -22.9680 H   0  0  0  0  0  0  0  0  0  0  0  0
   -5.0505   -0.6699  -22.5104 H   0  0  0  0  0  0  0  0  0  0  0  0
   -7.6392   -3.2034  -24.6281 H   0  0  0  0  0  0  0  0  0  0  0  0
   -6.5780   -1.9953  -23.8465 H   0  0  0  0  0  0  0  0  0  0  0  0
   -6.5840   -0.1676  -24.9349 H   0  0  0  0  0  0  0  0  0  0  0  0
   -7.8272    0.1515  -26.1576 H   0  0  0  0  0  0  0  0  0  0  0  0
   -6.3608    1.8200  -22.9616 H   0  0  0  0  0  0  0  0  0  0  0  0
   -9.9160    3.6747  -23.4154 H   0  0  0  0  0  0  0  0  0  0  0  0
  -10.1874    1.6916  -24.9660 H   0  0  0  0  0  0  0  0  0  0  0  0
  -12.2330   -1.7834  -24.9954 H   0  0  0  0  0  0  0  0  0  0  0  0
  -13.6594   -2.9068  -23.2586 H   0  0  0  0  0  0  0  0  0  0  0  0
  -10.1315   -3.8443  -21.0153 H   0  0  0  0  0  0  0  0  0  0  0  0
  1  2  1  0
  2  3  1  0
  3  4  1  0
  4  5  1  0
  5  6  1  0
  6  7  1  0
  7  8  2  0
  8  9  1  0
  9 10  2  0
 10 11  1  0
 11 12  2  0
 12 13  1  0
 13 14  2  0
 14 15  1  0
 15 16  2  0
  6 17  1  0
 17 18  2  0
 17 19  1  0
 19 20  1  6
 20 21  1  0
 21 22  1  0
 22 23  1  0
 23 24  1  0
 24 25  2  0
 25 26  1  0
 26 27  1  0
 21 28  1  0
 28 29  2  0
 28 30  1  0
 30 31  2  0
 31 32  1  0
 32 33  2  0
 33 34  1  0
 33 35  1  0
 35 36  2  0
 19  4  1  0
 27 23  2  0
 36 30  1  0
 16  7  1  0
 36 19  1  0
 16 11  1  0
  1 37  1  0
  1 38  1  0
  1 39  1  0
  3 40  1  0
  3 41  1  0
  4 42  1  1
  5 43  1  0
  5 44  1  0
  8 45  1  0
 10 46  1  0
 12 47  1  0
 13 48  1  0
 14 49  1  0
 15 50  1  0
 20 51  1  0
 20 52  1  0
 22 53  1  0
 22 54  1  0
 24 55  1  0
 26 56  1  0
 27 57  1  0
 31 58  1  0
 32 59  1  0
 35 60  1  0
M  END
>  <RMSD>  (185) 
0.06543797765987677

$$$$

     RDKit          3D

 47 50  0  0  0  0  0  0  0  0999 V2000
    8.2231    0.3292   21.2575 O   0  0  0  0  0  0  0  0  0  0  0  0
    7.5102   -0.5609   21.6791 C   0  0  0  0  0  0  0  0  0  0  0  0
    6.2509   -1.0701   20.9659 C   0  0  0  0  0  0  0  0  0  0  0  0
    5.7419   -0.2352   19.8271 C   0  0  0  0  0  0  0  0  0  0  0  0
    6.2166   -0.4457   18.5596 C   0  0  0  0  0  0  0  0  0  0  0  0
    5.7775    0.1791   17.4350 N   0  0  0  0  0  0  0  0  0  0  0  0
    4.8029    1.0465   17.5878 C   0  0  0  0  0  0  0  0  0  0  0  0
    4.2039    1.3665   18.8370 C   0  0  0  0  0  0  0  0  0  0  0  0
    3.1339    2.2943   18.9449 C   0  0  0  0  0  0  0  0  0  0  0  0
    2.6149    2.6182   20.1708 C   0  0  0  0  0  0  0  0  0  0  0  0
    3.1369    2.0256   21.3429 C   0  0  0  0  0  0  0  0  0  0  0  0
    4.1627    1.1142   21.2591 C   0  0  0  0  0  0  0  0  0  0  0  0
    4.7165    0.7455   20.0020 C   0  0  0  0  0  0  0  0  0  0  0  0
    7.7693   -1.2036   22.8832 N   0  0  0  0  0  0  0  0  0  0  0  0
    7.1678   -2.4394   23.1929 C   0  0  0  0  0  0  0  0  0  0  0  0
    6.1135   -2.5763   24.0102 C   0  0  0  0  0  0  0  0  0  0  0  0
    5.5505   -1.5157   24.8452 C   0  0  0  0  0  0  0  0  0  0  0  0
    6.2448   -0.7194   25.6727 C   0  0  0  0  0  0  0  0  0  0  0  0
    7.6550   -0.9124   26.0446 C   0  0  0  0  0  0  0  0  0  0  0  0
    8.6916   -1.0480   25.2108 C   0  0  0  0  0  0  0  0  0  0  0  0
    8.7739   -0.5692   23.7692 C   0  0  1  0  0  0  0  0  0  0  0  0
   10.2005   -0.7747   23.2759 C   0  0  0  0  0  0  0  0  0  0  0  0
   10.6393   -2.0610   22.9791 C   0  0  0  0  0  0  0  0  0  0  0  0
   11.9962   -2.3315   22.8969 C   0  0  0  0  0  0  0  0  0  0  0  0
   12.9267   -1.3165   23.0895 C   0  0  0  0  0  0  0  0  0  0  0  0
   12.4889   -0.0126   23.3066 C   0  0  0  0  0  0  0  0  0  0  0  0
   11.1298    0.2643   23.3554 C   0  0  0  0  0  0  0  0  0  0  0  0
    5.4871   -1.1985   21.7402 H   0  0  0  0  0  0  0  0  0  0  0  0
    6.4932   -2.0768   20.6021 H   0  0  0  0  0  0  0  0  0  0  0  0
    7.0006   -1.1857   18.3940 H   0  0  0  0  0  0  0  0  0  0  0  0
    4.4525    1.5619   16.6928 H   0  0  0  0  0  0  0  0  0  0  0  0
    2.7387    2.7405   18.0336 H   0  0  0  0  0  0  0  0  0  0  0  0
    1.8074    3.3426   20.2591 H   0  0  0  0  0  0  0  0  0  0  0  0
    2.7212    2.2933   22.3147 H   0  0  0  0  0  0  0  0  0  0  0  0
    4.5556    0.6677   22.1676 H   0  0  0  0  0  0  0  0  0  0  0  0
    7.5449   -3.2972   22.6298 H   0  0  0  0  0  0  0  0  0  0  0  0
    5.6039   -3.5368   24.0277 H   0  0  0  0  0  0  0  0  0  0  0  0
    4.4633   -1.4161   24.8208 H   0  0  0  0  0  0  0  0  0  0  0  0
    5.7217    0.0603   26.2234 H   0  0  0  0  0  0  0  0  0  0  0  0
    7.8520   -0.9366   27.1193 H   0  0  0  0  0  0  0  0  0  0  0  0
    9.6334   -1.4266   25.6074 H   0  0  0  0  0  0  0  0  0  0  0  0
    8.5401    0.5016   23.7508 H   0  0  0  0  0  0  0  0  0  0  0  0
    9.9022   -2.8563   22.8760 H   0  0  0  0  0  0  0  0  0  0  0  0
   12.3359   -3.3481   22.7460 H   0  0  0  0  0  0  0  0  0  0  0  0
   13.9891   -1.5341   23.0284 H   0  0  0  0  0  0  0  0  0  0  0  0
   13.1972    0.8034   23.4304 H   0  0  0  0  0  0  0  0  0  0  0  0
   10.8078    1.2953   23.4882 H   0  0  0  0  0  0  0  0  0  0  0  0
  1  2  2  0
  2  3  1  0
  3  4  1  0
  4  5  2  0
  5  6  1  0
  6  7  2  0
  7  8  1  0
  8  9  2  0
  9 10  1  0
 10 11  2  0
 11 12  1  0
 12 13  2  0
  2 14  1  0
 14 15  1  0
 15 16  2  3
 16 17  1  0
 17 18  2  3
 18 19  1  0
 19 20  2  3
 20 21  1  0
 21 22  1  0
 22 23  2  0
 23 24  1  0
 24 25  2  0
 25 26  1  0
 26 27  2  0
 13  4  1  0
 21 14  1  0
 27 22  1  0
 13  8  1  0
  3 28  1  0
  3 29  1  0
  5 30  1  0
  7 31  1  0
  9 32  1  0
 10 33  1  0
 11 34  1  0
 12 35  1  0
 15 36  1  0
 16 37  1  0
 17 38  1  0
 18 39  1  0
 19 40  1  0
 20 41  1  0
 21 42  1  1
 23 43  1  0
 24 44  1  0
 25 45  1  0
 26 46  1  0
 27 47  1  0
M  END
>  <RMSD>  (186) 
0.05130696011848619

$$$$

     RDKit          3D

 58 62  0  0  0  0  0  0  0  0999 V2000
   -6.7767    2.5949  -23.1767 C   0  0  0  0  0  0  0  0  0  0  0  0
   -7.3771    1.3808  -23.7400 N   0  0  0  0  0  0  0  0  0  0  0  0
   -6.7922    1.0205  -25.0530 C   0  0  0  0  0  0  0  0  0  0  0  0
   -7.3068   -0.3298  -25.6116 C   0  0  0  0  0  0  0  0  0  0  0  0
   -8.1247   -1.1111  -24.7017 N   0  0  0  0  0  0  0  0  0  0  0  0
   -7.5523   -2.3078  -24.1184 C   0  0  0  0  0  0  0  0  0  0  0  0
   -8.1991   -2.6344  -22.7527 C   0  0  2  0  0  0  0  0  0  0  0  0
   -7.7723   -1.5036  -21.7892 C   0  0  0  0  0  0  0  0  0  0  0  0
   -8.1272   -0.3343  -21.8314 O   0  0  0  0  0  0  0  0  0  0  0  0
   -6.8120   -1.9876  -20.9444 N   0  0  0  0  0  0  0  0  0  0  0  0
   -6.1684   -1.1574  -19.9925 C   0  0  0  0  0  0  0  0  0  0  0  0
   -6.5437   -1.2440  -18.6760 C   0  0  0  0  0  0  0  0  0  0  0  0
   -6.0186   -0.4939  -17.6781 N   0  0  0  0  0  0  0  0  0  0  0  0
   -5.0777    0.3635  -18.0048 C   0  0  0  0  0  0  0  0  0  0  0  0
   -4.5858    0.5418  -19.3323 C   0  0  0  0  0  0  0  0  0  0  0  0
   -3.5634    1.4812  -19.6358 C   0  0  0  0  0  0  0  0  0  0  0  0
   -3.0970    1.6195  -20.9154 C   0  0  0  0  0  0  0  0  0  0  0  0
   -3.6289    0.8245  -21.9532 C   0  0  0  0  0  0  0  0  0  0  0  0
   -4.6290   -0.0816  -21.6905 C   0  0  0  0  0  0  0  0  0  0  0  0
   -5.1392   -0.2427  -20.3682 C   0  0  0  0  0  0  0  0  0  0  0  0
   -6.3400   -3.3053  -21.3245 C   0  0  0  0  0  0  0  0  0  0  0  0
   -7.5445   -3.8750  -22.0855 C   0  0  2  0  0  0  0  0  0  0  0  0
   -7.2196   -5.0411  -23.0150 C   0  0  0  0  0  0  0  0  0  0  0  0
   -9.7010   -2.6989  -22.9587 C   0  0  0  0  0  0  0  0  0  0  0  0
  -10.5353   -3.5884  -22.2661 C   0  0  0  0  0  0  0  0  0  0  0  0
  -11.9015   -3.5085  -22.4303 C   0  0  0  0  0  0  0  0  0  0  0  0
  -12.6881   -4.3432  -21.7279 F   0  0  0  0  0  0  0  0  0  0  0  0
  -12.5027   -2.5865  -23.2762 C   0  0  0  0  0  0  0  0  0  0  0  0
  -11.6863   -1.7275  -23.9854 C   0  0  0  0  0  0  0  0  0  0  0  0
  -10.2989   -1.7826  -23.8405 C   0  0  0  0  0  0  0  0  0  0  0  0
   -9.4608   -0.8353  -24.6470 C   0  0  0  0  0  0  0  0  0  0  0  0
   -9.9391    0.1514  -25.2067 O   0  0  0  0  0  0  0  0  0  0  0  0
   -6.9655    3.4509  -23.8365 H   0  0  0  0  0  0  0  0  0  0  0  0
   -7.2045    2.8041  -22.1960 H   0  0  0  0  0  0  0  0  0  0  0  0
   -5.6910    2.4716  -23.0638 H   0  0  0  0  0  0  0  0  0  0  0  0
   -8.3924    1.5208  -23.8795 H   0  0  0  0  0  0  0  0  0  0  0  0
   -7.2882    0.5972  -23.0729 H   0  0  0  0  0  0  0  0  0  0  0  0
   -7.0326    1.8088  -25.7777 H   0  0  0  0  0  0  0  0  0  0  0  0
   -5.6963    0.9970  -24.9812 H   0  0  0  0  0  0  0  0  0  0  0  0
   -7.8991   -0.1690  -26.5163 H   0  0  0  0  0  0  0  0  0  0  0  0
   -6.4612   -0.9616  -25.9078 H   0  0  0  0  0  0  0  0  0  0  0  0
   -6.4775   -2.1343  -23.9799 H   0  0  0  0  0  0  0  0  0  0  0  0
   -7.6962   -3.1532  -24.8019 H   0  0  0  0  0  0  0  0  0  0  0  0
   -7.3298   -1.9405  -18.3909 H   0  0  0  0  0  0  0  0  0  0  0  0
   -4.6443    0.9640  -17.2040 H   0  0  0  0  0  0  0  0  0  0  0  0
   -3.1655    2.0879  -18.8294 H   0  0  0  0  0  0  0  0  0  0  0  0
   -2.3220    2.3465  -21.1445 H   0  0  0  0  0  0  0  0  0  0  0  0
   -3.2624    0.9493  -22.9699 H   0  0  0  0  0  0  0  0  0  0  0  0
   -5.0161   -0.6926  -22.5004 H   0  0  0  0  0  0  0  0  0  0  0  0
   -5.4563   -3.2446  -21.9806 H   0  0  0  0  0  0  0  0  0  0  0  0
   -6.0649   -3.8873  -20.4433 H   0  0  0  0  0  0  0  0  0  0  0  0
   -8.2445   -4.2126  -21.3171 H   0  0  0  0  0  0  0  0  0  0  0  0
   -6.8592   -5.9072  -22.4540 H   0  0  0  0  0  0  0  0  0  0  0  0
   -6.4359   -4.7743  -23.7331 H   0  0  0  0  0  0  0  0  0  0  0  0
   -8.0988   -5.3570  -23.5889 H   0  0  0  0  0  0  0  0  0  0  0  0
  -10.1533   -4.3436  -21.5898 H   0  0  0  0  0  0  0  0  0  0  0  0
  -13.5839   -2.5611  -23.3512 H   0  0  0  0  0  0  0  0  0  0  0  0
  -12.1075   -0.9941  -24.6634 H   0  0  0  0  0  0  0  0  0  0  0  0
  1  2  1  0
  2  3  1  0
  3  4  1  0
  4  5  1  0
  5  6  1  0
  7  6  1  6
  7  8  1  0
  8  9  2  0
  8 10  1  0
 10 11  1  0
 11 12  2  0
 12 13  1  0
 13 14  2  0
 14 15  1  0
 15 16  2  0
 16 17  1  0
 17 18  2  0
 18 19  1  0
 19 20  2  0
 10 21  1  0
 21 22  1  0
 22 23  1  0
  7 24  1  0
 24 25  2  0
 25 26  1  0
 26 27  1  0
 26 28  2  0
 28 29  1  0
 29 30  2  0
 30 31  1  0
 31 32  2  0
 31  5  1  0
 22  7  1  0
 30 24  1  0
 20 11  1  0
 20 15  1  0
  1 33  1  0
  1 34  1  0
  1 35  1  0
  2 36  1  0
  2 37  1  0
  3 38  1  0
  3 39  1  0
  4 40  1  0
  4 41  1  0
  6 42  1  0
  6 43  1  0
 12 44  1  0
 14 45  1  0
 16 46  1  0
 17 47  1  0
 18 48  1  0
 19 49  1  0
 21 50  1  0
 21 51  1  0
 22 52  1  1
 23 53  1  0
 23 54  1  0
 23 55  1  0
 25 56  1  0
 28 57  1  0
 29 58  1  0
M  CHG  1   2   1
M  END
>  <RMSD>  (187) 
0.058825208780646336

$$$$

     RDKit          3D

 62 67  0  0  0  0  0  0  0  0999 V2000
   -8.7049    2.3468  -27.8055 C   0  0  0  0  0  0  0  0  0  0  0  0
   -7.2445    2.2638  -27.3845 C   0  0  0  0  0  0  0  0  0  0  0  0
   -7.0550    2.2213  -25.9405 N   0  0  0  0  0  0  0  0  0  0  0  0
   -6.8578    3.3541  -25.2451 N   0  0  0  0  0  0  0  0  0  0  0  0
   -6.7714    2.9660  -23.9769 C   0  0  0  0  0  0  0  0  0  0  0  0
   -6.9405    1.5781  -23.8439 C   0  0  0  0  0  0  0  0  0  0  0  0
   -7.1437    1.1349  -25.1294 C   0  0  0  0  0  0  0  0  0  0  0  0
   -7.3334   -0.2749  -25.5977 C   0  0  0  0  0  0  0  0  0  0  0  0
   -8.1393   -1.0602  -24.6743 N   0  0  0  0  0  0  0  0  0  0  0  0
   -7.5856   -2.2828  -24.1185 C   0  0  0  0  0  0  0  0  0  0  0  0
   -8.2338   -2.6344  -22.7548 C   0  0  2  0  0  0  0  0  0  0  0  0
   -7.8810   -1.5347  -21.7209 C   0  0  0  0  0  0  0  0  0  0  0  0
   -8.4164   -0.4570  -21.5743 O   0  0  0  0  0  0  0  0  0  0  0  0
   -6.8132   -1.9785  -20.9710 N   0  0  0  0  0  0  0  0  0  0  0  0
   -6.1765   -1.1544  -20.0031 C   0  0  0  0  0  0  0  0  0  0  0  0
   -6.5487   -1.2410  -18.6866 C   0  0  0  0  0  0  0  0  0  0  0  0
   -6.0146   -0.4997  -17.6825 N   0  0  0  0  0  0  0  0  0  0  0  0
   -5.0741    0.3591  -18.0011 C   0  0  0  0  0  0  0  0  0  0  0  0
   -4.5710    0.5391  -19.3230 C   0  0  0  0  0  0  0  0  0  0  0  0
   -3.5532    1.4860  -19.6317 C   0  0  0  0  0  0  0  0  0  0  0  0
   -3.1031    1.6256  -20.9159 C   0  0  0  0  0  0  0  0  0  0  0  0
   -3.6380    0.8286  -21.9542 C   0  0  0  0  0  0  0  0  0  0  0  0
   -4.6174   -0.0956  -21.6798 C   0  0  0  0  0  0  0  0  0  0  0  0
   -5.1230   -0.2526  -20.3602 C   0  0  0  0  0  0  0  0  0  0  0  0
   -6.3516   -3.2996  -21.3539 C   0  0  0  0  0  0  0  0  0  0  0  0
   -7.5627   -3.8730  -22.1021 C   0  0  2  0  0  0  0  0  0  0  0  0
   -7.2354   -5.0309  -23.0350 C   0  0  0  0  0  0  0  0  0  0  0  0
   -9.7291   -2.7038  -22.9776 C   0  0  0  0  0  0  0  0  0  0  0  0
  -10.5545   -3.5810  -22.2665 C   0  0  0  0  0  0  0  0  0  0  0  0
  -11.9234   -3.4931  -22.4168 C   0  0  0  0  0  0  0  0  0  0  0  0
  -12.6984   -4.3262  -21.7013 F   0  0  0  0  0  0  0  0  0  0  0  0
  -12.5327   -2.5680  -23.2602 C   0  0  0  0  0  0  0  0  0  0  0  0
  -11.7154   -1.7140  -23.9773 C   0  0  0  0  0  0  0  0  0  0  0  0
  -10.3248   -1.7730  -23.8461 C   0  0  0  0  0  0  0  0  0  0  0  0
   -9.4855   -0.8158  -24.6493 C   0  0  0  0  0  0  0  0  0  0  0  0
   -9.9823    0.1172  -25.2628 O   0  0  0  0  0  0  0  0  0  0  0  0
   -9.1594    3.2410  -27.3774 H   0  0  0  0  0  0  0  0  0  0  0  0
   -9.2682    1.4738  -27.4609 H   0  0  0  0  0  0  0  0  0  0  0  0
   -8.7866    2.4130  -28.8959 H   0  0  0  0  0  0  0  0  0  0  0  0
   -6.6838    3.1233  -27.7493 H   0  0  0  0  0  0  0  0  0  0  0  0
   -6.7775    1.3787  -27.8200 H   0  0  0  0  0  0  0  0  0  0  0  0
   -6.5870    3.6878  -23.1935 H   0  0  0  0  0  0  0  0  0  0  0  0
   -6.9301    0.9658  -22.9482 H   0  0  0  0  0  0  0  0  0  0  0  0
   -7.7729   -0.3139  -26.6053 H   0  0  0  0  0  0  0  0  0  0  0  0
   -6.3485   -0.7548  -25.6496 H   0  0  0  0  0  0  0  0  0  0  0  0
   -7.7287   -3.1187  -24.8210 H   0  0  0  0  0  0  0  0  0  0  0  0
   -6.5096   -2.1357  -23.9798 H   0  0  0  0  0  0  0  0  0  0  0  0
   -7.3329   -1.9355  -18.3933 H   0  0  0  0  0  0  0  0  0  0  0  0
   -4.6546    0.9632  -17.1936 H   0  0  0  0  0  0  0  0  0  0  0  0
   -3.1523    2.1063  -18.8307 H   0  0  0  0  0  0  0  0  0  0  0  0
   -2.3295    2.3525  -21.1528 H   0  0  0  0  0  0  0  0  0  0  0  0
   -3.2730    0.9412  -22.9711 H   0  0  0  0  0  0  0  0  0  0  0  0
   -5.0285   -0.7065  -22.4795 H   0  0  0  0  0  0  0  0  0  0  0  0
   -6.0900   -3.8823  -20.4683 H   0  0  0  0  0  0  0  0  0  0  0  0
   -5.4662   -3.2736  -22.0126 H   0  0  0  0  0  0  0  0  0  0  0  0
   -8.2394   -4.2394  -21.3266 H   0  0  0  0  0  0  0  0  0  0  0  0
   -6.8801   -5.9040  -22.4790 H   0  0  0  0  0  0  0  0  0  0  0  0
   -8.1099   -5.3385  -23.6177 H   0  0  0  0  0  0  0  0  0  0  0  0
   -6.4547   -4.7541  -23.7501 H   0  0  0  0  0  0  0  0  0  0  0  0
  -10.1524   -4.3339  -21.5958 H   0  0  0  0  0  0  0  0  0  0  0  0
  -13.6179   -2.5303  -23.3263 H   0  0  0  0  0  0  0  0  0  0  0  0
  -12.1505   -0.9850  -24.6517 H   0  0  0  0  0  0  0  0  0  0  0  0
  1  2  1  0
  2  3  1  0
  3  4  1  0
  4  5  2  0
  5  6  1  0
  6  7  2  0
  7  8  1  0
  8  9  1  0
  9 10  1  0
 11 10  1  6
 11 12  1  0
 12 13  2  0
 12 14  1  0
 14 15  1  0
 15 16  2  0
 16 17  1  0
 17 18  2  0
 18 19  1  0
 19 20  2  0
 20 21  1  0
 21 22  2  0
 22 23  1  0
 23 24  2  0
 14 25  1  0
 25 26  1  0
 26 27  1  0
 11 28  1  0
 28 29  2  0
 29 30  1  0
 30 31  1  0
 30 32  2  0
 32 33  1  0
 33 34  2  0
 34 35  1  0
 35 36  2  0
  7  3  1  0
 35  9  1  0
 26 11  1  0
 34 28  1  0
 24 15  1  0
 24 19  1  0
  1 37  1  0
  1 38  1  0
  1 39  1  0
  2 40  1  0
  2 41  1  0
  5 42  1  0
  6 43  1  0
  8 44  1  0
  8 45  1  0
 10 46  1  0
 10 47  1  0
 16 48  1  0
 18 49  1  0
 20 50  1  0
 21 51  1  0
 22 52  1  0
 23 53  1  0
 25 54  1  0
 25 55  1  0
 26 56  1  1
 27 57  1  0
 27 58  1  0
 27 59  1  0
 29 60  1  0
 32 61  1  0
 33 62  1  0
M  END
>  <RMSD>  (188) 
0.05714154445067804

$$$$

     RDKit          3D

 65 69  0  0  0  0  0  0  0  0999 V2000
    3.4194   -4.0122   24.1782 C   0  0  0  0  0  0  0  0  0  0  0  0
    3.0264   -4.2563   25.6354 C   0  0  0  0  0  0  0  0  0  0  0  0
    4.1560   -4.0201   26.6059 C   0  0  0  0  0  0  0  0  0  0  0  0
    4.5023   -4.7952   27.4666 O   0  0  0  0  0  0  0  0  0  0  0  0
    4.8608   -2.7088   26.5546 N   0  0  2  0  0  0  0  0  0  0  0  0
    3.9555   -1.4810   26.7300 C   0  0  0  0  0  0  0  0  0  0  0  0
    4.7762   -0.2250   26.5425 C   0  0  0  0  0  0  0  0  0  0  0  0
    5.3546   -0.1886   25.1313 C   0  0  0  0  0  0  0  0  0  0  0  0
    6.2046   -1.3975   24.8209 C   0  0  0  0  0  0  0  0  0  0  0  0
    7.1791   -1.3775   23.7956 C   0  0  0  0  0  0  0  0  0  0  0  0
    7.5563   -0.1389   23.1776 N   0  0  0  0  0  0  0  0  0  0  0  0
    8.3320    0.8146   23.9729 C   0  0  0  0  0  0  0  0  0  0  0  0
    9.8410    0.7418   23.7712 C   0  0  0  0  0  0  0  0  0  0  0  0
   10.6433    1.8510   24.0429 C   0  0  0  0  0  0  0  0  0  0  0  0
   12.0200    1.7891   23.8430 C   0  0  0  0  0  0  0  0  0  0  0  0
   12.6214    0.6305   23.3671 C   0  0  0  0  0  0  0  0  0  0  0  0
   11.8212   -0.4795   23.1441 C   0  0  0  0  0  0  0  0  0  0  0  0
   12.5341   -1.9593   22.5703 Cl  0  0  0  0  0  0  0  0  0  0  0  0
   10.4527   -0.4422   23.3679 C   0  0  0  0  0  0  0  0  0  0  0  0
    7.3334    0.1620   21.8430 C   0  0  0  0  0  0  0  0  0  0  0  0
    7.7850    1.1627   21.3264 O   0  0  0  0  0  0  0  0  0  0  0  0
    6.4602   -0.8213   21.0380 C   0  0  0  0  0  0  0  0  0  0  0  0
    5.7958   -0.1858   19.8425 C   0  0  0  0  0  0  0  0  0  0  0  0
    6.2260   -0.4259   18.5626 C   0  0  0  0  0  0  0  0  0  0  0  0
    5.7488    0.1558   17.4287 N   0  0  0  0  0  0  0  0  0  0  0  0
    4.7767    1.0251   17.5822 C   0  0  0  0  0  0  0  0  0  0  0  0
    4.2082    1.3608   18.8418 C   0  0  0  0  0  0  0  0  0  0  0  0
    3.1574    2.3086   18.9504 C   0  0  0  0  0  0  0  0  0  0  0  0
    2.6306    2.6279   20.1697 C   0  0  0  0  0  0  0  0  0  0  0  0
    3.1274    2.0116   21.3408 C   0  0  0  0  0  0  0  0  0  0  0  0
    4.1440    1.0892   21.2628 C   0  0  0  0  0  0  0  0  0  0  0  0
    4.7227    0.7403   20.0084 C   0  0  0  0  0  0  0  0  0  0  0  0
    7.7803   -2.5629   23.3858 C   0  0  0  0  0  0  0  0  0  0  0  0
    7.5514   -3.7359   24.0950 C   0  0  0  0  0  0  0  0  0  0  0  0
    6.6758   -3.7491   25.1718 C   0  0  0  0  0  0  0  0  0  0  0  0
    5.9569   -2.5971   25.4820 C   0  0  0  0  0  0  0  0  0  0  0  0
    4.2890   -4.6184   23.8969 H   0  0  0  0  0  0  0  0  0  0  0  0
    3.6953   -2.9633   24.0404 H   0  0  0  0  0  0  0  0  0  0  0  0
    2.5917   -4.2438   23.5034 H   0  0  0  0  0  0  0  0  0  0  0  0
    2.2165   -3.5814   25.9371 H   0  0  0  0  0  0  0  0  0  0  0  0
    2.6733   -5.2752   25.8107 H   0  0  0  0  0  0  0  0  0  0  0  0
    5.3925   -2.8092   27.4579 H   0  0  0  0  0  0  0  0  0  0  0  0
    3.4852   -1.5026   27.7172 H   0  0  0  0  0  0  0  0  0  0  0  0
    3.1565   -1.5107   25.9860 H   0  0  0  0  0  0  0  0  0  0  0  0
    4.1350    0.6507   26.7040 H   0  0  0  0  0  0  0  0  0  0  0  0
    5.5719   -0.1828   27.2971 H   0  0  0  0  0  0  0  0  0  0  0  0
    4.5222   -0.1768   24.4083 H   0  0  0  0  0  0  0  0  0  0  0  0
    5.9195    0.7311   24.9601 H   0  0  0  0  0  0  0  0  0  0  0  0
    7.9919    1.8352   23.7596 H   0  0  0  0  0  0  0  0  0  0  0  0
    8.1004    0.6071   25.0247 H   0  0  0  0  0  0  0  0  0  0  0  0
   10.1974    2.7671   24.4283 H   0  0  0  0  0  0  0  0  0  0  0  0
   12.6361    2.6552   24.0625 H   0  0  0  0  0  0  0  0  0  0  0  0
   13.6902    0.5796   23.1866 H   0  0  0  0  0  0  0  0  0  0  0  0
    9.8847   -1.3568   23.2532 H   0  0  0  0  0  0  0  0  0  0  0  0
    5.7273   -1.2596   21.7243 H   0  0  0  0  0  0  0  0  0  0  0  0
    7.1092   -1.6421   20.7037 H   0  0  0  0  0  0  0  0  0  0  0  0
    7.0213   -1.1492   18.3790 H   0  0  0  0  0  0  0  0  0  0  0  0
    4.3816    1.5116   16.6836 H   0  0  0  0  0  0  0  0  0  0  0  0
    2.7960    2.7772   18.0395 H   0  0  0  0  0  0  0  0  0  0  0  0
    1.8314    3.3585   20.2461 H   0  0  0  0  0  0  0  0  0  0  0  0
    2.7012    2.2838   22.3064 H   0  0  0  0  0  0  0  0  0  0  0  0
    4.5145    0.6397   22.1836 H   0  0  0  0  0  0  0  0  0  0  0  0
    8.4560   -2.5795   22.5324 H   0  0  0  0  0  0  0  0  0  0  0  0
    8.0696   -4.6421   23.8103 H   0  0  0  0  0  0  0  0  0  0  0  0
    6.5457   -4.6643   25.7380 H   0  0  0  0  0  0  0  0  0  0  0  0
  1  2  1  0
  2  3  1  0
  3  4  2  0
  3  5  1  0
  5  6  1  0
  6  7  1  0
  7  8  1  0
  8  9  1  0
  9 10  2  0
 10 11  1  0
 11 12  1  0
 12 13  1  0
 13 14  2  0
 14 15  1  0
 15 16  2  0
 16 17  1  0
 17 18  1  0
 17 19  2  0
 11 20  1  0
 20 21  2  0
 20 22  1  0
 22 23  1  0
 23 24  2  0
 24 25  1  0
 25 26  2  0
 26 27  1  0
 27 28  2  0
 28 29  1  0
 29 30  2  0
 30 31  1  0
 31 32  2  0
 10 33  1  0
 33 34  2  0
 34 35  1  0
 35 36  2  0
 36  5  1  0
 36  9  1  0
 19 13  1  0
 32 23  1  0
 32 27  1  0
  1 37  1  0
  1 38  1  0
  1 39  1  0
  2 40  1  0
  2 41  1  0
  5 42  1  1
  6 43  1  0
  6 44  1  0
  7 45  1  0
  7 46  1  0
  8 47  1  0
  8 48  1  0
 12 49  1  0
 12 50  1  0
 14 51  1  0
 15 52  1  0
 16 53  1  0
 19 54  1  0
 22 55  1  0
 22 56  1  0
 24 57  1  0
 26 58  1  0
 28 59  1  0
 29 60  1  0
 30 61  1  0
 31 62  1  0
 33 63  1  0
 34 64  1  0
 35 65  1  0
M  CHG  1   5   1
M  END
>  <RMSD>  (189) 
0.03533679427987664

$$$$

     RDKit          3D

 67 71  0  0  0  0  0  0  0  0999 V2000
   -6.7696    2.6166  -23.2000 C   0  0  0  0  0  0  0  0  0  0  0  0
   -7.3275    1.4316  -23.8217 N   0  0  0  0  0  0  0  0  0  0  0  0
   -6.8471    1.0208  -25.0157 C   0  0  0  0  0  0  0  0  0  0  0  0
   -6.0307    1.6606  -25.6669 O   0  0  0  0  0  0  0  0  0  0  0  0
   -7.3634   -0.3103  -25.5778 C   0  0  0  0  0  0  0  0  0  0  0  0
   -8.1677   -1.1182  -24.6881 N   0  0  0  0  0  0  0  0  0  0  0  0
   -7.5793   -2.3106  -24.1060 C   0  0  0  0  0  0  0  0  0  0  0  0
   -8.2112   -2.6533  -22.7335 C   0  0  2  0  0  0  0  0  0  0  0  0
   -7.8550   -1.5407  -21.7147 C   0  0  0  0  0  0  0  0  0  0  0  0
   -8.3783   -0.4502  -21.5914 O   0  0  0  0  0  0  0  0  0  0  0  0
   -6.7948   -1.9808  -20.9560 N   0  0  0  0  0  0  0  0  0  0  0  0
   -6.1677   -1.1554  -19.9911 C   0  0  0  0  0  0  0  0  0  0  0  0
   -6.5474   -1.2393  -18.6779 C   0  0  0  0  0  0  0  0  0  0  0  0
   -6.0178   -0.4933  -17.6746 N   0  0  0  0  0  0  0  0  0  0  0  0
   -5.0756    0.3605  -18.0035 C   0  0  0  0  0  0  0  0  0  0  0  0
   -4.5818    0.5424  -19.3286 C   0  0  0  0  0  0  0  0  0  0  0  0
   -3.5622    1.4833  -19.6335 C   0  0  0  0  0  0  0  0  0  0  0  0
   -3.1012    1.6173  -20.9140 C   0  0  0  0  0  0  0  0  0  0  0  0
   -3.6309    0.8199  -21.9540 C   0  0  0  0  0  0  0  0  0  0  0  0
   -4.6256   -0.0884  -21.6881 C   0  0  0  0  0  0  0  0  0  0  0  0
   -5.1337   -0.2448  -20.3657 C   0  0  0  0  0  0  0  0  0  0  0  0
   -6.3093   -3.2923  -21.3155 C   0  0  0  0  0  0  0  0  0  0  0  0
   -7.5058   -3.8797  -22.0860 C   0  0  2  0  0  0  0  0  0  0  0  0
   -7.0783   -5.0043  -23.0272 C   0  0  0  0  0  0  0  0  0  0  0  0
   -6.1655   -6.2525  -22.1173 S   0  0  0  0  0  0  0  0  0  0  0  0
   -6.7863   -6.4711  -20.8197 O   0  0  0  0  0  0  0  0  0  0  0  0
   -4.7483   -5.9079  -22.1735 O   0  0  0  0  0  0  0  0  0  0  0  0
   -6.4671   -7.5678  -23.1206 N   0  0  0  0  0  0  0  0  0  0  0  0
   -5.6312   -7.5958  -24.3228 C   0  0  0  0  0  0  0  0  0  0  0  0
   -6.5638   -8.8537  -22.4347 C   0  0  0  0  0  0  0  0  0  0  0  0
   -9.7126   -2.7383  -22.9404 C   0  0  0  0  0  0  0  0  0  0  0  0
  -10.5420   -3.6113  -22.2249 C   0  0  0  0  0  0  0  0  0  0  0  0
  -11.9117   -3.5318  -22.3854 C   0  0  0  0  0  0  0  0  0  0  0  0
  -12.6950   -4.3705  -21.6864 F   0  0  0  0  0  0  0  0  0  0  0  0
  -12.5233   -2.6139  -23.2300 C   0  0  0  0  0  0  0  0  0  0  0  0
  -11.7116   -1.7609  -23.9466 C   0  0  0  0  0  0  0  0  0  0  0  0
  -10.3251   -1.8297  -23.8208 C   0  0  0  0  0  0  0  0  0  0  0  0
   -9.5190   -0.9000  -24.6729 C   0  0  0  0  0  0  0  0  0  0  0  0
  -10.0365    0.0100  -25.3085 O   0  0  0  0  0  0  0  0  0  0  0  0
   -5.7044    2.4730  -22.9770 H   0  0  0  0  0  0  0  0  0  0  0  0
   -6.8725    3.4920  -23.8501 H   0  0  0  0  0  0  0  0  0  0  0  0
   -7.3060    2.7999  -22.2658 H   0  0  0  0  0  0  0  0  0  0  0  0
   -7.9293    0.8368  -23.2623 H   0  0  0  0  0  0  0  0  0  0  0  0
   -7.9394   -0.0867  -26.4833 H   0  0  0  0  0  0  0  0  0  0  0  0
   -6.4792   -0.8789  -25.8864 H   0  0  0  0  0  0  0  0  0  0  0  0
   -6.5019   -2.1348  -23.9872 H   0  0  0  0  0  0  0  0  0  0  0  0
   -7.7231   -3.1642  -24.7843 H   0  0  0  0  0  0  0  0  0  0  0  0
   -7.3319   -1.9397  -18.3959 H   0  0  0  0  0  0  0  0  0  0  0  0
   -4.6469    0.9639  -17.2022 H   0  0  0  0  0  0  0  0  0  0  0  0
   -3.1637    2.0939  -18.8275 H   0  0  0  0  0  0  0  0  0  0  0  0
   -2.3263    2.3413  -21.1472 H   0  0  0  0  0  0  0  0  0  0  0  0
   -3.2697    0.9489  -22.9725 H   0  0  0  0  0  0  0  0  0  0  0  0
   -5.0264   -0.6920  -22.4979 H   0  0  0  0  0  0  0  0  0  0  0  0
   -5.3937   -3.2304  -21.9298 H   0  0  0  0  0  0  0  0  0  0  0  0
   -6.0644   -3.8802  -20.4300 H   0  0  0  0  0  0  0  0  0  0  0  0
   -8.1831   -4.3097  -21.3408 H   0  0  0  0  0  0  0  0  0  0  0  0
   -6.3757   -4.6468  -23.7919 H   0  0  0  0  0  0  0  0  0  0  0  0
   -7.9323   -5.5035  -23.5016 H   0  0  0  0  0  0  0  0  0  0  0  0
   -5.9209   -6.8028  -25.0285 H   0  0  0  0  0  0  0  0  0  0  0  0
   -5.8110   -8.5617  -24.8071 H   0  0  0  0  0  0  0  0  0  0  0  0
   -4.5666   -7.4857  -24.0707 H   0  0  0  0  0  0  0  0  0  0  0  0
   -7.2068   -8.7433  -21.5628 H   0  0  0  0  0  0  0  0  0  0  0  0
   -5.5796   -9.2371  -22.1324 H   0  0  0  0  0  0  0  0  0  0  0  0
   -7.0337   -9.5639  -23.1197 H   0  0  0  0  0  0  0  0  0  0  0  0
  -10.1576   -4.3547  -21.5353 H   0  0  0  0  0  0  0  0  0  0  0  0
  -13.6039   -2.5828  -23.3117 H   0  0  0  0  0  0  0  0  0  0  0  0
  -12.1266   -1.0204  -24.6208 H   0  0  0  0  0  0  0  0  0  0  0  0
  1  2  1  0
  2  3  1  0
  3  4  2  0
  3  5  1  0
  5  6  1  0
  6  7  1  0
  8  7  1  6
  8  9  1  0
  9 10  2  0
  9 11  1  0
 11 12  1  0
 12 13  2  0
 13 14  1  0
 14 15  2  0
 15 16  1  0
 16 17  2  0
 17 18  1  0
 18 19  2  0
 19 20  1  0
 20 21  2  0
 11 22  1  0
 22 23  1  0
 23 24  1  0
 24 25  1  0
 25 26  2  0
 25 27  2  0
 25 28  1  0
 28 29  1  0
 28 30  1  0
  8 31  1  0
 31 32  2  0
 32 33  1  0
 33 34  1  0
 33 35  2  0
 35 36  1  0
 36 37  2  0
 37 38  1  0
 38 39  2  0
 38  6  1  0
 23  8  1  0
 37 31  1  0
 21 12  1  0
 21 16  1  0
  1 40  1  0
  1 41  1  0
  1 42  1  0
  2 43  1  0
  5 44  1  0
  5 45  1  0
  7 46  1  0
  7 47  1  0
 13 48  1  0
 15 49  1  0
 17 50  1  0
 18 51  1  0
 19 52  1  0
 20 53  1  0
 22 54  1  0
 22 55  1  0
 23 56  1  1
 24 57  1  0
 24 58  1  0
 29 59  1  0
 29 60  1  0
 29 61  1  0
 30 62  1  0
 30 63  1  0
 30 64  1  0
 32 65  1  0
 35 66  1  0
 36 67  1  0
M  END
>  <RMSD>  (190) 
0.058569426955470544

$$$$

     RDKit          3D

 49 50  0  0  0  0  0  0  0  0999 V2000
  -13.4334   -6.6024  -18.9709 C   0  0  0  0  0  0  0  0  0  0  0  0
  -13.8733   -7.9859  -19.0889 N   0  0  0  0  0  0  0  0  0  0  0  0
  -14.3847   -8.4630  -20.5698 S   0  0  0  0  0  0  0  0  0  0  0  0
  -15.5358   -7.6823  -20.9616 O   0  0  0  0  0  0  0  0  0  0  0  0
  -14.4265   -9.9049  -20.5918 O   0  0  0  0  0  0  0  0  0  0  0  0
  -13.1182   -7.9720  -21.4722 O   0  0  0  0  0  0  0  0  0  0  0  0
  -13.2625   -8.2418  -22.8843 C   0  0  0  0  0  0  0  0  0  0  0  0
  -11.9577   -7.7818  -23.5125 C   0  0  0  0  0  0  0  0  0  0  0  0
  -11.1399   -8.5582  -23.9875 O   0  0  0  0  0  0  0  0  0  0  0  0
  -11.7494   -6.4358  -23.5118 N   0  0  0  0  0  0  0  0  0  0  0  0
  -10.5969   -5.9110  -24.2368 C   0  0  1  0  0  0  0  0  0  0  0  0
  -10.8665   -5.9490  -25.7464 C   0  0  0  0  0  0  0  0  0  0  0  0
  -10.1799   -4.5358  -23.7487 C   0  0  0  0  0  0  0  0  0  0  0  0
   -8.8752   -4.3422  -23.2871 C   0  0  0  0  0  0  0  0  0  0  0  0
   -8.4621   -3.0729  -22.9014 C   0  0  0  0  0  0  0  0  0  0  0  0
   -6.8164   -2.8465  -22.3684 Cl  0  0  0  0  0  0  0  0  0  0  0  0
   -9.3277   -1.9902  -22.9392 C   0  0  0  0  0  0  0  0  0  0  0  0
  -10.6418   -2.1730  -23.3858 C   0  0  0  0  0  0  0  0  0  0  0  0
  -11.5987   -1.0393  -23.3715 C   0  0  0  0  0  0  0  0  0  0  0  0
  -11.1760    0.2707  -23.6320 C   0  0  0  0  0  0  0  0  0  0  0  0
  -12.0463    1.3431  -23.4793 C   0  0  0  0  0  0  0  0  0  0  0  0
  -13.3695    1.1023  -23.1025 C   0  0  0  0  0  0  0  0  0  0  0  0
  -14.4669    2.4753  -22.7905 S   0  0  0  0  0  0  0  0  0  0  0  0
  -15.6780    1.7994  -21.8656 N   0  0  0  0  0  0  0  0  0  0  0  0
  -13.7668    3.4135  -21.9341 O   0  0  0  0  0  0  0  0  0  0  0  0
  -15.0807    2.9099  -24.0333 O   0  0  0  0  0  0  0  0  0  0  0  0
  -13.8179   -0.1991  -22.8996 C   0  0  0  0  0  0  0  0  0  0  0  0
  -12.9365   -1.2564  -23.0271 C   0  0  0  0  0  0  0  0  0  0  0  0
  -11.0472   -3.4476  -23.7943 C   0  0  0  0  0  0  0  0  0  0  0  0
  -14.2127   -5.9422  -19.3474 H   0  0  0  0  0  0  0  0  0  0  0  0
  -13.2908   -6.3897  -17.9125 H   0  0  0  0  0  0  0  0  0  0  0  0
  -12.5014   -6.3993  -19.4990 H   0  0  0  0  0  0  0  0  0  0  0  0
  -13.2160   -8.6740  -18.7294 H   0  0  0  0  0  0  0  0  0  0  0  0
  -14.1219   -7.6748  -23.2641 H   0  0  0  0  0  0  0  0  0  0  0  0
  -13.3840   -9.3111  -23.0781 H   0  0  0  0  0  0  0  0  0  0  0  0
  -12.2808   -5.8253  -22.9088 H   0  0  0  0  0  0  0  0  0  0  0  0
   -9.7731   -6.5955  -24.0284 H   0  0  0  0  0  0  0  0  0  0  0  0
  -11.0768   -6.9815  -26.0424 H   0  0  0  0  0  0  0  0  0  0  0  0
   -9.9963   -5.5922  -26.3038 H   0  0  0  0  0  0  0  0  0  0  0  0
  -11.7363   -5.3278  -25.9921 H   0  0  0  0  0  0  0  0  0  0  0  0
   -8.1740   -5.1714  -23.2346 H   0  0  0  0  0  0  0  0  0  0  0  0
   -8.9892   -1.0271  -22.5646 H   0  0  0  0  0  0  0  0  0  0  0  0
  -10.1545    0.4502  -23.9611 H   0  0  0  0  0  0  0  0  0  0  0  0
  -11.6834    2.3602  -23.6002 H   0  0  0  0  0  0  0  0  0  0  0  0
  -16.5893    2.0133  -22.2415 H   0  0  0  0  0  0  0  0  0  0  0  0
  -15.5790    2.0624  -20.8934 H   0  0  0  0  0  0  0  0  0  0  0  0
  -14.8398   -0.3710  -22.5823 H   0  0  0  0  0  0  0  0  0  0  0  0
  -13.2860   -2.2606  -22.8041 H   0  0  0  0  0  0  0  0  0  0  0  0
  -12.0649   -3.5819  -24.1591 H   0  0  0  0  0  0  0  0  0  0  0  0
  1  2  1  0
  2  3  1  0
  3  4  2  0
  3  5  2  0
  3  6  1  0
  6  7  1  0
  7  8  1  0
  8  9  2  0
  8 10  1  0
 10 11  1  0
 11 12  1  0
 11 13  1  0
 13 14  2  0
 14 15  1  0
 15 16  1  0
 15 17  2  0
 17 18  1  0
 18 19  1  0
 19 20  2  0
 20 21  1  0
 21 22  2  0
 22 23  1  0
 23 24  1  0
 23 25  2  0
 23 26  2  0
 22 27  1  0
 27 28  2  0
 18 29  2  0
 29 13  1  0
 28 19  1  0
  1 30  1  0
  1 31  1  0
  1 32  1  0
  2 33  1  0
  7 34  1  0
  7 35  1  0
 10 36  1  0
 11 37  1  6
 12 38  1  0
 12 39  1  0
 12 40  1  0
 14 41  1  0
 17 42  1  0
 20 43  1  0
 21 44  1  0
 24 45  1  0
 24 46  1  0
 27 47  1  0
 28 48  1  0
 29 49  1  0
M  END
>  <RMSD>  (191) 
0.04655359943760532

$$$$

     RDKit          3D

 66 71  0  0  0  0  0  0  0  0999 V2000
   -6.7713    2.6222  -23.2014 C   0  0  0  0  0  0  0  0  0  0  0  0
   -7.3422    1.4427  -23.8269 N   0  0  0  0  0  0  0  0  0  0  0  0
   -6.8497    1.0158  -25.0115 C   0  0  0  0  0  0  0  0  0  0  0  0
   -6.0292    1.6479  -25.6672 O   0  0  0  0  0  0  0  0  0  0  0  0
   -7.3588   -0.3214  -25.5671 C   0  0  0  0  0  0  0  0  0  0  0  0
   -8.1641   -1.1415  -24.6902 N   0  0  0  0  0  0  0  0  0  0  0  0
   -7.5739   -2.3302  -24.0936 C   0  0  0  0  0  0  0  0  0  0  0  0
   -8.2139   -2.6652  -22.7205 C   0  0  2  0  0  0  0  0  0  0  0  0
   -7.8531   -1.5516  -21.7065 C   0  0  0  0  0  0  0  0  0  0  0  0
   -8.3791   -0.4611  -21.5866 O   0  0  0  0  0  0  0  0  0  0  0  0
   -6.7941   -1.9909  -20.9487 N   0  0  0  0  0  0  0  0  0  0  0  0
   -6.1669   -1.1585  -19.9919 C   0  0  0  0  0  0  0  0  0  0  0  0
   -6.5463   -1.2397  -18.6775 C   0  0  0  0  0  0  0  0  0  0  0  0
   -6.0207   -0.4904  -17.6737 N   0  0  0  0  0  0  0  0  0  0  0  0
   -5.0789    0.3637  -18.0033 C   0  0  0  0  0  0  0  0  0  0  0  0
   -4.5865    0.5437  -19.3303 C   0  0  0  0  0  0  0  0  0  0  0  0
   -3.5647    1.4818  -19.6345 C   0  0  0  0  0  0  0  0  0  0  0  0
   -3.0999    1.6172  -20.9139 C   0  0  0  0  0  0  0  0  0  0  0  0
   -3.6298    0.8220  -21.9537 C   0  0  0  0  0  0  0  0  0  0  0  0
   -4.6279   -0.0830  -21.6898 C   0  0  0  0  0  0  0  0  0  0  0  0
   -5.1365   -0.2422  -20.3677 C   0  0  0  0  0  0  0  0  0  0  0  0
   -6.3221   -3.3113  -21.3036 C   0  0  0  0  0  0  0  0  0  0  0  0
   -7.5470   -3.8907  -22.0324 C   0  0  2  0  0  0  0  0  0  0  0  0
   -7.2542   -5.1018  -22.9338 C   0  0  0  0  0  0  0  0  0  0  0  0
   -6.8667   -6.3171  -22.2446 N   0  0  0  0  0  0  0  0  0  0  0  0
   -5.6220   -6.5445  -21.7473 C   0  0  0  0  0  0  0  0  0  0  0  0
   -4.4590   -5.9280  -22.2411 C   0  0  0  0  0  0  0  0  0  0  0  0
   -3.2759   -6.2603  -21.6149 C   0  0  0  0  0  0  0  0  0  0  0  0
   -3.2028   -7.0730  -20.5588 N   0  0  0  0  0  0  0  0  0  0  0  0
   -4.3632   -7.5911  -20.1876 C   0  0  0  0  0  0  0  0  0  0  0  0
   -5.5529   -7.4232  -20.7391 N   0  0  0  0  0  0  0  0  0  0  0  0
   -9.7128   -2.7399  -22.9284 C   0  0  0  0  0  0  0  0  0  0  0  0
  -10.5493   -3.6069  -22.2139 C   0  0  0  0  0  0  0  0  0  0  0  0
  -11.9236   -3.5276  -22.3620 C   0  0  0  0  0  0  0  0  0  0  0  0
  -12.9377   -4.6003  -21.4372 Cl  0  0  0  0  0  0  0  0  0  0  0  0
  -12.5235   -2.6029  -23.2147 C   0  0  0  0  0  0  0  0  0  0  0  0
  -11.7075   -1.7571  -23.9365 C   0  0  0  0  0  0  0  0  0  0  0  0
  -10.3207   -1.8349  -23.8111 C   0  0  0  0  0  0  0  0  0  0  0  0
   -9.5137   -0.9098  -24.6686 C   0  0  0  0  0  0  0  0  0  0  0  0
  -10.0336    0.0054  -25.2922 O   0  0  0  0  0  0  0  0  0  0  0  0
   -6.8714    3.5035  -23.8434 H   0  0  0  0  0  0  0  0  0  0  0  0
   -7.3029    2.8053  -22.2645 H   0  0  0  0  0  0  0  0  0  0  0  0
   -5.7055    2.4739  -22.9819 H   0  0  0  0  0  0  0  0  0  0  0  0
   -7.9293    0.8441  -23.2564 H   0  0  0  0  0  0  0  0  0  0  0  0
   -7.9376   -0.0921  -26.4666 H   0  0  0  0  0  0  0  0  0  0  0  0
   -6.4696   -0.8762  -25.8819 H   0  0  0  0  0  0  0  0  0  0  0  0
   -7.7065   -3.1914  -24.7610 H   0  0  0  0  0  0  0  0  0  0  0  0
   -6.4991   -2.1520  -23.9745 H   0  0  0  0  0  0  0  0  0  0  0  0
   -7.3335   -1.9378  -18.3960 H   0  0  0  0  0  0  0  0  0  0  0  0
   -4.6372    0.9622  -17.2047 H   0  0  0  0  0  0  0  0  0  0  0  0
   -3.1663    2.0872  -18.8270 H   0  0  0  0  0  0  0  0  0  0  0  0
   -2.3246    2.3409  -21.1468 H   0  0  0  0  0  0  0  0  0  0  0  0
   -3.2664    0.9500  -22.9710 H   0  0  0  0  0  0  0  0  0  0  0  0
   -5.0237   -0.6884  -22.4997 H   0  0  0  0  0  0  0  0  0  0  0  0
   -6.0277   -3.8660  -20.4091 H   0  0  0  0  0  0  0  0  0  0  0  0
   -5.4387   -3.2468  -21.9597 H   0  0  0  0  0  0  0  0  0  0  0  0
   -8.2358   -4.1991  -21.2409 H   0  0  0  0  0  0  0  0  0  0  0  0
   -8.1221   -5.3390  -23.5601 H   0  0  0  0  0  0  0  0  0  0  0  0
   -6.4420   -4.8559  -23.6206 H   0  0  0  0  0  0  0  0  0  0  0  0
   -7.5741   -6.8060  -21.7113 H   0  0  0  0  0  0  0  0  0  0  0  0
   -4.4844   -5.1977  -23.0372 H   0  0  0  0  0  0  0  0  0  0  0  0
   -2.3236   -5.8483  -21.9487 H   0  0  0  0  0  0  0  0  0  0  0  0
   -4.3495   -8.2141  -19.3064 H   0  0  0  0  0  0  0  0  0  0  0  0
  -10.1539   -4.3592  -21.5421 H   0  0  0  0  0  0  0  0  0  0  0  0
  -13.6051   -2.5653  -23.3001 H   0  0  0  0  0  0  0  0  0  0  0  0
  -12.1233   -1.0204  -24.6149 H   0  0  0  0  0  0  0  0  0  0  0  0
  1  2  1  0
  2  3  1  0
  3  4  2  0
  3  5  1  0
  5  6  1  0
  6  7  1  0
  8  7  1  6
  8  9  1  0
  9 10  2  0
  9 11  1  0
 11 12  1  0
 12 13  2  0
 13 14  1  0
 14 15  2  0
 15 16  1  0
 16 17  2  0
 17 18  1  0
 18 19  2  0
 19 20  1  0
 20 21  2  0
 11 22  1  0
 22 23  1  0
 23 24  1  0
 24 25  1  0
 25 26  1  0
 26 27  2  0
 27 28  1  0
 28 29  2  0
 29 30  1  0
 30 31  2  0
  8 32  1  0
 32 33  2  0
 33 34  1  0
 34 35  1  0
 34 36  2  0
 36 37  1  0
 37 38  2  0
 38 39  1  0
 39 40  2  0
 39  6  1  0
 23  8  1  0
 31 26  1  0
 38 32  1  0
 21 12  1  0
 21 16  1  0
  1 41  1  0
  1 42  1  0
  1 43  1  0
  2 44  1  0
  5 45  1  0
  5 46  1  0
  7 47  1  0
  7 48  1  0
 13 49  1  0
 15 50  1  0
 17 51  1  0
 18 52  1  0
 19 53  1  0
 20 54  1  0
 22 55  1  0
 22 56  1  0
 23 57  1  1
 24 58  1  0
 24 59  1  0
 25 60  1  0
 27 61  1  0
 28 62  1  0
 30 63  1  0
 33 64  1  0
 36 65  1  0
 37 66  1  0
M  END
>  <RMSD>  (192) 
0.061190582904894805

$$$$

     RDKit          3D

 37 39  0  0  0  0  0  0  0  0999 V2000
    7.6925    1.1570   21.3187 O   0  0  0  0  0  0  0  0  0  0  0  0
    7.2793    0.1294   21.8221 C   0  0  0  0  0  0  0  0  0  0  0  0
    6.3999   -0.8581   21.0384 C   0  0  0  0  0  0  0  0  0  0  0  0
    5.7677   -0.1993   19.8394 C   0  0  0  0  0  0  0  0  0  0  0  0
    6.2298   -0.4309   18.5690 C   0  0  0  0  0  0  0  0  0  0  0  0
    5.7579    0.1506   17.4341 N   0  0  0  0  0  0  0  0  0  0  0  0
    4.7781    1.0165   17.5773 C   0  0  0  0  0  0  0  0  0  0  0  0
    4.2026    1.3680   18.8318 C   0  0  0  0  0  0  0  0  0  0  0  0
    3.1494    2.3196   18.9441 C   0  0  0  0  0  0  0  0  0  0  0  0
    2.6276    2.6322   20.1728 C   0  0  0  0  0  0  0  0  0  0  0  0
    3.1308    2.0119   21.3363 C   0  0  0  0  0  0  0  0  0  0  0  0
    4.1468    1.0912   21.2567 C   0  0  0  0  0  0  0  0  0  0  0  0
    4.7117    0.7472   19.9963 C   0  0  0  0  0  0  0  0  0  0  0  0
    7.5846   -0.1946   23.1143 N   0  0  0  0  0  0  0  0  0  0  0  0
    8.3645    0.7137   23.9336 C   0  0  0  0  0  0  0  0  0  0  0  0
    9.8599    0.6567   23.6782 C   0  0  0  0  0  0  0  0  0  0  0  0
   10.6660    1.7715   23.9183 C   0  0  0  0  0  0  0  0  0  0  0  0
   12.0369    1.7088   23.6802 C   0  0  0  0  0  0  0  0  0  0  0  0
   12.6177    0.5493   23.1745 C   0  0  0  0  0  0  0  0  0  0  0  0
   11.8024   -0.5463   22.9231 C   0  0  0  0  0  0  0  0  0  0  0  0
   12.4679   -1.9548   22.1406 Cl  0  0  0  0  0  0  0  0  0  0  0  0
   10.4432   -0.5174   23.2042 C   0  0  0  0  0  0  0  0  0  0  0  0
    7.0259   -1.7045   20.7172 H   0  0  0  0  0  0  0  0  0  0  0  0
    5.6303   -1.2766   21.7012 H   0  0  0  0  0  0  0  0  0  0  0  0
    7.0423   -1.1397   18.4136 H   0  0  0  0  0  0  0  0  0  0  0  0
    4.3942    1.4915   16.6732 H   0  0  0  0  0  0  0  0  0  0  0  0
    2.7691    2.8071   18.0485 H   0  0  0  0  0  0  0  0  0  0  0  0
    1.8275    3.3645   20.2646 H   0  0  0  0  0  0  0  0  0  0  0  0
    2.7173    2.2687   22.3079 H   0  0  0  0  0  0  0  0  0  0  0  0
    4.5307    0.6302   22.1624 H   0  0  0  0  0  0  0  0  0  0  0  0
    7.2802   -1.0614   23.5202 H   0  0  0  0  0  0  0  0  0  0  0  0
    8.1487    0.5013   24.9890 H   0  0  0  0  0  0  0  0  0  0  0  0
    8.0059    1.7249   23.7335 H   0  0  0  0  0  0  0  0  0  0  0  0
   10.2225    2.7016   24.2755 H   0  0  0  0  0  0  0  0  0  0  0  0
   12.6590    2.5817   23.8608 H   0  0  0  0  0  0  0  0  0  0  0  0
   13.6835    0.4963   22.9670 H   0  0  0  0  0  0  0  0  0  0  0  0
    9.8381   -1.4043   23.0361 H   0  0  0  0  0  0  0  0  0  0  0  0
  1  2  2  0
  2  3  1  0
  3  4  1  0
  4  5  2  0
  5  6  1  0
  6  7  2  0
  7  8  1  0
  8  9  2  0
  9 10  1  0
 10 11  2  0
 11 12  1  0
 12 13  2  0
  2 14  1  0
 14 15  1  0
 15 16  1  0
 16 17  2  0
 17 18  1  0
 18 19  2  0
 19 20  1  0
 20 21  1  0
 20 22  2  0
 13  4  1  0
 22 16  1  0
 13  8  1  0
  3 23  1  0
  3 24  1  0
  5 25  1  0
  7 26  1  0
  9 27  1  0
 10 28  1  0
 11 29  1  0
 12 30  1  0
 14 31  1  0
 15 32  1  0
 15 33  1  0
 17 34  1  0
 18 35  1  0
 19 36  1  0
 22 37  1  0
M  END
>  <RMSD>  (193) 
0.03674028589769962

$$$$

     RDKit          3D

 66 70  0  0  0  0  0  0  0  0999 V2000
   -6.7626    2.6526  -23.2209 C   0  0  0  0  0  0  0  0  0  0  0  0
   -7.3112    1.4752  -23.8585 N   0  0  0  0  0  0  0  0  0  0  0  0
   -6.8326    1.0653  -25.0526 C   0  0  0  0  0  0  0  0  0  0  0  0
   -6.0161    1.6983  -25.7053 O   0  0  0  0  0  0  0  0  0  0  0  0
   -7.3278   -0.2854  -25.5808 C   0  0  0  0  0  0  0  0  0  0  0  0
   -8.1462   -1.0807  -24.6886 N   0  0  0  0  0  0  0  0  0  0  0  0
   -7.5820   -2.2899  -24.1209 C   0  0  0  0  0  0  0  0  0  0  0  0
   -8.2306   -2.6354  -22.7549 C   0  0  2  0  0  0  0  0  0  0  0  0
   -7.8763   -1.5343  -21.7256 C   0  0  0  0  0  0  0  0  0  0  0  0
   -8.4077   -0.4496  -21.5918 O   0  0  0  0  0  0  0  0  0  0  0  0
   -6.8122   -1.9816  -20.9708 N   0  0  0  0  0  0  0  0  0  0  0  0
   -6.1757   -1.1559  -20.0041 C   0  0  0  0  0  0  0  0  0  0  0  0
   -6.5468   -1.2430  -18.6874 C   0  0  0  0  0  0  0  0  0  0  0  0
   -6.0146   -0.5009  -17.6826 N   0  0  0  0  0  0  0  0  0  0  0  0
   -5.0748    0.3595  -18.0001 C   0  0  0  0  0  0  0  0  0  0  0  0
   -4.5717    0.5407  -19.3217 C   0  0  0  0  0  0  0  0  0  0  0  0
   -3.5537    1.4877  -19.6297 C   0  0  0  0  0  0  0  0  0  0  0  0
   -3.0982    1.6214  -20.9139 C   0  0  0  0  0  0  0  0  0  0  0  0
   -3.6271    0.8176  -21.9514 C   0  0  0  0  0  0  0  0  0  0  0  0
   -4.6206   -0.0908  -21.6827 C   0  0  0  0  0  0  0  0  0  0  0  0
   -5.1274   -0.2480  -20.3617 C   0  0  0  0  0  0  0  0  0  0  0  0
   -6.3466   -3.3043  -21.3515 C   0  0  0  0  0  0  0  0  0  0  0  0
   -7.5628   -3.8707  -22.1021 C   0  0  2  0  0  0  0  0  0  0  0  0
   -7.2633   -5.0432  -23.0331 C   0  0  0  0  0  0  0  0  0  0  0  0
   -6.9218   -6.1905  -22.2900 O   0  0  0  0  0  0  0  0  0  0  0  0
   -5.5457   -6.5387  -22.2898 C   0  0  0  0  0  0  0  0  0  0  0  0
   -5.2178   -7.4236  -23.4830 C   0  0  0  0  0  0  0  0  0  0  0  0
   -5.2449   -7.2304  -20.9735 C   0  0  0  0  0  0  0  0  0  0  0  0
   -9.7244   -2.7146  -22.9789 C   0  0  0  0  0  0  0  0  0  0  0  0
  -10.5500   -3.5895  -22.2619 C   0  0  0  0  0  0  0  0  0  0  0  0
  -11.9247   -3.5086  -22.3986 C   0  0  0  0  0  0  0  0  0  0  0  0
  -12.9263   -4.5697  -21.4480 Cl  0  0  0  0  0  0  0  0  0  0  0  0
  -12.5238   -2.5822  -23.2553 C   0  0  0  0  0  0  0  0  0  0  0  0
  -11.7104   -1.7298  -23.9809 C   0  0  0  0  0  0  0  0  0  0  0  0
  -10.3221   -1.7920  -23.8534 C   0  0  0  0  0  0  0  0  0  0  0  0
   -9.4916   -0.8357  -24.6617 C   0  0  0  0  0  0  0  0  0  0  0  0
   -9.9736    0.1243  -25.2468 O   0  0  0  0  0  0  0  0  0  0  0  0
   -6.8666    3.5433  -23.8491 H   0  0  0  0  0  0  0  0  0  0  0  0
   -7.2927    2.8069  -22.2785 H   0  0  0  0  0  0  0  0  0  0  0  0
   -5.6991    2.5099  -22.9991 H   0  0  0  0  0  0  0  0  0  0  0  0
   -8.1040    1.0220  -23.4279 H   0  0  0  0  0  0  0  0  0  0  0  0
   -6.4313   -0.8598  -25.8358 H   0  0  0  0  0  0  0  0  0  0  0  0
   -7.8649   -0.1086  -26.5189 H   0  0  0  0  0  0  0  0  0  0  0  0
   -7.7173   -3.1292  -24.8202 H   0  0  0  0  0  0  0  0  0  0  0  0
   -6.5066   -2.1322  -23.9846 H   0  0  0  0  0  0  0  0  0  0  0  0
   -7.3306   -1.9366  -18.3904 H   0  0  0  0  0  0  0  0  0  0  0  0
   -4.6568    0.9648  -17.1926 H   0  0  0  0  0  0  0  0  0  0  0  0
   -3.1544    2.1092  -18.8293 H   0  0  0  0  0  0  0  0  0  0  0  0
   -2.3300    2.3515  -21.1556 H   0  0  0  0  0  0  0  0  0  0  0  0
   -3.2750    0.9425  -22.9736 H   0  0  0  0  0  0  0  0  0  0  0  0
   -5.0341   -0.7002  -22.4826 H   0  0  0  0  0  0  0  0  0  0  0  0
   -6.0795   -3.8869  -20.4653 H   0  0  0  0  0  0  0  0  0  0  0  0
   -5.4556   -3.2736  -22.0051 H   0  0  0  0  0  0  0  0  0  0  0  0
   -8.2286   -4.2564  -21.3309 H   0  0  0  0  0  0  0  0  0  0  0  0
   -8.1516   -5.2755  -23.6411 H   0  0  0  0  0  0  0  0  0  0  0  0
   -6.4543   -4.7680  -23.7285 H   0  0  0  0  0  0  0  0  0  0  0  0
   -4.9464   -5.6193  -22.3475 H   0  0  0  0  0  0  0  0  0  0  0  0
   -4.1594   -7.7036  -23.4735 H   0  0  0  0  0  0  0  0  0  0  0  0
   -5.4308   -6.9165  -24.4285 H   0  0  0  0  0  0  0  0  0  0  0  0
   -5.8216   -8.3347  -23.4454 H   0  0  0  0  0  0  0  0  0  0  0  0
   -4.1809   -7.4865  -20.9156 H   0  0  0  0  0  0  0  0  0  0  0  0
   -5.4887   -6.5794  -20.1281 H   0  0  0  0  0  0  0  0  0  0  0  0
   -5.8262   -8.1527  -20.8773 H   0  0  0  0  0  0  0  0  0  0  0  0
  -10.1318   -4.3365  -21.5941 H   0  0  0  0  0  0  0  0  0  0  0  0
  -13.6075   -2.5331  -23.3302 H   0  0  0  0  0  0  0  0  0  0  0  0
  -12.1416   -0.9986  -24.6571 H   0  0  0  0  0  0  0  0  0  0  0  0
  1  2  1  0
  2  3  1  0
  3  4  2  0
  3  5  1  0
  5  6  1  0
  6  7  1  0
  8  7  1  6
  8  9  1  0
  9 10  2  0
  9 11  1  0
 11 12  1  0
 12 13  2  0
 13 14  1  0
 14 15  2  0
 15 16  1  0
 16 17  2  0
 17 18  1  0
 18 19  2  0
 19 20  1  0
 20 21  2  0
 11 22  1  0
 22 23  1  0
 23 24  1  0
 24 25  1  0
 25 26  1  0
 26 27  1  0
 26 28  1  0
  8 29  1  0
 29 30  2  0
 30 31  1  0
 31 32  1  0
 31 33  2  0
 33 34  1  0
 34 35  2  0
 35 36  1  0
 36 37  2  0
 36  6  1  0
 23  8  1  0
 35 29  1  0
 21 12  1  0
 21 16  1  0
  1 38  1  0
  1 39  1  0
  1 40  1  0
  2 41  1  0
  5 42  1  0
  5 43  1  0
  7 44  1  0
  7 45  1  0
 13 46  1  0
 15 47  1  0
 17 48  1  0
 18 49  1  0
 19 50  1  0
 20 51  1  0
 22 52  1  0
 22 53  1  0
 23 54  1  1
 24 55  1  0
 24 56  1  0
 26 57  1  0
 27 58  1  0
 27 59  1  0
 27 60  1  0
 28 61  1  0
 28 62  1  0
 28 63  1  0
 30 64  1  0
 33 65  1  0
 34 66  1  0
M  END
>  <RMSD>  (194) 
0.05689016731596934

$$$$

     RDKit          3D

 40 43  0  0  0  0  0  0  0  0999 V2000
  -11.9878   -2.0354  -24.0716 C   0  0  0  0  0  0  0  0  0  0  0  0
  -10.6519   -1.4382  -23.6300 C   0  0  2  0  0  0  0  0  0  0  0  0
   -9.9135   -0.8750  -24.8505 C   0  0  0  0  0  0  0  0  0  0  0  0
   -8.5746   -0.5142  -24.5818 O   0  0  0  0  0  0  0  0  0  0  0  0
   -7.7985   -1.5956  -24.1285 C   0  0  0  0  0  0  0  0  0  0  0  0
   -8.3235   -2.1855  -22.8023 C   0  0  1  0  0  0  0  0  0  0  0  0
   -9.8171   -2.4995  -22.9170 C   0  0  0  0  0  0  0  0  0  0  0  0
   -7.5661   -3.3682  -22.4038 N   0  0  0  0  0  0  0  0  0  0  0  0
   -6.6849   -3.1537  -21.3767 C   0  0  0  0  0  0  0  0  0  0  0  0
   -5.8680   -3.9100  -20.8982 O   0  0  0  0  0  0  0  0  0  0  0  0
   -6.9275   -1.8339  -20.9618 N   0  0  0  0  0  0  0  0  0  0  0  0
   -6.1781   -1.1449  -19.9833 C   0  0  0  0  0  0  0  0  0  0  0  0
   -6.5183   -1.2767  -18.6663 C   0  0  0  0  0  0  0  0  0  0  0  0
   -5.9488   -0.5589  -17.6676 N   0  0  0  0  0  0  0  0  0  0  0  0
   -5.0297    0.3119  -18.0101 C   0  0  0  0  0  0  0  0  0  0  0  0
   -4.5738    0.5274  -19.3424 C   0  0  0  0  0  0  0  0  0  0  0  0
   -3.5834    1.4896  -19.6615 C   0  0  0  0  0  0  0  0  0  0  0  0
   -3.1593    1.6340  -20.9515 C   0  0  0  0  0  0  0  0  0  0  0  0
   -3.6857    0.8236  -21.9798 C   0  0  0  0  0  0  0  0  0  0  0  0
   -4.6497   -0.1096  -21.7019 C   0  0  0  0  0  0  0  0  0  0  0  0
   -5.1323   -0.2558  -20.3702 C   0  0  0  0  0  0  0  0  0  0  0  0
   -8.0113   -1.2535  -21.6233 C   0  0  0  0  0  0  0  0  0  0  0  0
   -8.5637   -0.2389  -21.2865 O   0  0  0  0  0  0  0  0  0  0  0  0
  -12.5970   -2.3475  -23.2159 H   0  0  0  0  0  0  0  0  0  0  0  0
  -11.8008   -2.9255  -24.6869 H   0  0  0  0  0  0  0  0  0  0  0  0
  -12.5647   -1.3247  -24.6739 H   0  0  0  0  0  0  0  0  0  0  0  0
  -10.8275   -0.6159  -22.9253 H   0  0  0  0  0  0  0  0  0  0  0  0
   -9.9688   -1.5796  -25.7067 H   0  0  0  0  0  0  0  0  0  0  0  0
  -10.4030    0.0505  -25.1709 H   0  0  0  0  0  0  0  0  0  0  0  0
   -7.7485   -2.4070  -24.8754 H   0  0  0  0  0  0  0  0  0  0  0  0
   -6.7871   -1.2167  -23.9647 H   0  0  0  0  0  0  0  0  0  0  0  0
   -9.9008   -3.4494  -23.4624 H   0  0  0  0  0  0  0  0  0  0  0  0
  -10.2136   -2.6314  -21.9040 H   0  0  0  0  0  0  0  0  0  0  0  0
   -7.4000   -4.1480  -23.0241 H   0  0  0  0  0  0  0  0  0  0  0  0
   -7.3017   -1.9804  -18.3894 H   0  0  0  0  0  0  0  0  0  0  0  0
   -4.5855    0.9009  -17.2103 H   0  0  0  0  0  0  0  0  0  0  0  0
   -3.1702    2.0993  -18.8652 H   0  0  0  0  0  0  0  0  0  0  0  0
   -2.3892    2.3577  -21.1910 H   0  0  0  0  0  0  0  0  0  0  0  0
   -3.3165    0.9337  -22.9934 H   0  0  0  0  0  0  0  0  0  0  0  0
   -5.0461   -0.7273  -22.5032 H   0  0  0  0  0  0  0  0  0  0  0  0
  1  2  1  0
  2  3  1  0
  3  4  1  0
  4  5  1  0
  5  6  1  0
  6  7  1  0
  6  8  1  1
  8  9  1  0
  9 10  2  0
  9 11  1  0
 11 12  1  0
 12 13  2  0
 13 14  1  0
 14 15  2  0
 15 16  1  0
 16 17  2  0
 17 18  1  0
 18 19  2  0
 19 20  1  0
 20 21  2  0
 11 22  1  0
 22 23  2  0
  7  2  1  0
 21 12  1  0
 22  6  1  0
 21 16  1  0
  1 24  1  0
  1 25  1  0
  1 26  1  0
  2 27  1  1
  3 28  1  0
  3 29  1  0
  5 30  1  0
  5 31  1  0
  7 32  1  0
  7 33  1  0
  8 34  1  0
 13 35  1  0
 15 36  1  0
 17 37  1  0
 18 38  1  0
 19 39  1  0
 20 40  1  0
M  END
>  <RMSD>  (195) 
0.15874831366553016

$$$$
