
     RDKit          3D

 56 61  0  0  0  0  0  0  0  0999 V2000
    7.0673   -3.1356   23.6214 C   0  0  0  0  0  0  0  0  0  0  0  0
    7.3526   -2.1771   22.4747 C   0  0  1  0  0  0  0  0  0  0  0  0
    6.1409   -1.8543   21.5942 C   0  0  0  0  0  0  0  0  0  0  0  0
    6.5519   -0.6252   20.9411 N   0  0  0  0  0  0  0  0  0  0  0  0
    5.8867   -0.0491   19.8280 C   0  0  0  0  0  0  0  0  0  0  0  0
    6.3040   -0.3471   18.5579 C   0  0  0  0  0  0  0  0  0  0  0  0
    5.7568    0.1644   17.4257 N   0  0  0  0  0  0  0  0  0  0  0  0
    4.7570    1.0049   17.5667 C   0  0  0  0  0  0  0  0  0  0  0  0
    4.1994    1.3793   18.8245 C   0  0  0  0  0  0  0  0  0  0  0  0
    3.1221    2.3022   18.9402 C   0  0  0  0  0  0  0  0  0  0  0  0
    2.6152    2.6224   20.1707 C   0  0  0  0  0  0  0  0  0  0  0  0
    3.1499    2.0394   21.3424 C   0  0  0  0  0  0  0  0  0  0  0  0
    4.1952    1.1540   21.2580 C   0  0  0  0  0  0  0  0  0  0  0  0
    4.7590    0.8165   19.9965 C   0  0  0  0  0  0  0  0  0  0  0  0
    7.5710    0.0371   21.5981 C   0  0  0  0  0  0  0  0  0  0  0  0
    8.0628    1.0753   21.2206 O   0  0  0  0  0  0  0  0  0  0  0  0
    7.9253   -0.7891   22.8655 C   0  0  1  0  0  0  0  0  0  0  0  0
    7.1910   -0.1919   24.1034 C   0  0  0  0  0  0  0  0  0  0  0  0
    7.6976    1.1271   24.4567 N   0  0  0  0  0  0  0  0  0  0  0  0
    6.7846    2.1025   25.0330 C   0  0  0  0  0  0  0  0  0  0  0  0
    7.1840    2.7971   26.3693 C   0  0  0  0  0  0  0  0  0  0  0  0
    7.2114    4.1677   25.7001 N   0  0  0  0  0  0  0  0  0  0  0  0
    6.7821    3.5168   24.3903 C   0  0  0  0  0  0  0  0  0  0  0  0
    9.0260    1.4421   24.3680 C   0  0  0  0  0  0  0  0  0  0  0  0
    9.4591    2.5437   24.7179 O   0  0  0  0  0  0  0  0  0  0  0  0
    9.9300    0.3686   23.8388 C   0  0  0  0  0  0  0  0  0  0  0  0
   11.3107    0.5178   23.9985 C   0  0  0  0  0  0  0  0  0  0  0  0
   12.1902   -0.4111   23.4740 C   0  0  0  0  0  0  0  0  0  0  0  0
   11.6701   -1.5082   22.7853 C   0  0  0  0  0  0  0  0  0  0  0  0
   12.7559   -2.6620   22.0611 Cl  0  0  0  0  0  0  0  0  0  0  0  0
   10.3068   -1.6856   22.6308 C   0  0  0  0  0  0  0  0  0  0  0  0
    9.4120   -0.7404   23.1498 C   0  0  0  0  0  0  0  0  0  0  0  0
    7.9324   -3.2382   24.2852 H   0  0  0  0  0  0  0  0  0  0  0  0
    6.8085   -4.1318   23.2500 H   0  0  0  0  0  0  0  0  0  0  0  0
    6.2322   -2.7814   24.2335 H   0  0  0  0  0  0  0  0  0  0  0  0
    8.0793   -2.6487   21.8091 H   0  0  0  0  0  0  0  0  0  0  0  0
    5.2330   -1.7396   22.2140 H   0  0  0  0  0  0  0  0  0  0  0  0
    5.9446   -2.6334   20.8538 H   0  0  0  0  0  0  0  0  0  0  0  0
    7.1393   -1.0285   18.4116 H   0  0  0  0  0  0  0  0  0  0  0  0
    4.3315    1.4325   16.6566 H   0  0  0  0  0  0  0  0  0  0  0  0
    2.7193    2.7579   18.0369 H   0  0  0  0  0  0  0  0  0  0  0  0
    1.7986    3.3347   20.2612 H   0  0  0  0  0  0  0  0  0  0  0  0
    2.7383    2.2965   22.3142 H   0  0  0  0  0  0  0  0  0  0  0  0
    4.6126    0.7130   22.1591 H   0  0  0  0  0  0  0  0  0  0  0  0
    6.1230   -0.0925   23.8782 H   0  0  0  0  0  0  0  0  0  0  0  0
    7.2967   -0.8782   24.9568 H   0  0  0  0  0  0  0  0  0  0  0  0
    5.7844    1.6570   25.0832 H   0  0  0  0  0  0  0  0  0  0  0  0
    6.4371    2.7585   27.1572 H   0  0  0  0  0  0  0  0  0  0  0  0
    8.1509    2.5190   26.7722 H   0  0  0  0  0  0  0  0  0  0  0  0
    6.5159    4.8425   26.0835 H   0  0  0  0  0  0  0  0  0  0  0  0
    8.1820    4.5422   25.6401 H   0  0  0  0  0  0  0  0  0  0  0  0
    5.8166    3.8858   24.0591 H   0  0  0  0  0  0  0  0  0  0  0  0
    7.5180    3.6590   23.6054 H   0  0  0  0  0  0  0  0  0  0  0  0
   11.6875    1.3858   24.5294 H   0  0  0  0  0  0  0  0  0  0  0  0
   13.2672   -0.2915   23.5674 H   0  0  0  0  0  0  0  0  0  0  0  0
    9.9582   -2.5664   22.1013 H   0  0  0  0  0  0  0  0  0  0  0  0
  1  2  1  0
  2  3  1  0
  3  4  1  0
  4  5  1  0
  5  6  2  0
  6  7  1  0
  7  8  2  0
  8  9  1  0
  9 10  2  0
 10 11  1  0
 11 12  2  0
 12 13  1  0
 13 14  2  0
  4 15  1  0
 15 16  2  0
 15 17  1  0
 17 18  1  1
 18 19  1  0
 19 20  1  0
 20 21  1  0
 21 22  1  0
 22 23  1  0
 19 24  1  0
 24 25  2  0
 24 26  1  0
 26 27  2  0
 27 28  1  0
 28 29  2  0
 29 30  1  0
 29 31  1  0
 31 32  2  0
 17  2  1  0
 23 20  1  0
 32 26  1  0
 14  5  1  0
 32 17  1  0
 14  9  1  0
  1 33  1  0
  1 34  1  0
  1 35  1  0
  2 36  1  6
  3 37  1  0
  3 38  1  0
  6 39  1  0
  8 40  1  0
 10 41  1  0
 11 42  1  0
 12 43  1  0
 13 44  1  0
 18 45  1  0
 18 46  1  0
 20 47  1  0
 21 48  1  0
 21 49  1  0
 22 50  1  0
 22 51  1  0
 23 52  1  0
 23 53  1  0
 27 54  1  0
 28 55  1  0
 31 56  1  0
M  CHG  1  22   1
M  END
>  <RMSD>  (1) 
0.16199744767389387

$$$$

     RDKit          3D

 77 84  0  0  0  0  0  0  0  0999 V2000
    9.6323    1.6494   25.6410 O   0  0  0  0  0  0  0  0  0  0  0  0
    9.1797    0.9419   24.7502 C   0  0  0  0  0  0  0  0  0  0  0  0
   10.0263   -0.0386   23.9886 C   0  0  0  0  0  0  0  0  0  0  0  0
   11.4071    0.0189   24.1751 C   0  0  0  0  0  0  0  0  0  0  0  0
   12.2598   -0.7142   23.3698 C   0  0  0  0  0  0  0  0  0  0  0  0
   11.7039   -1.5231   22.3769 C   0  0  0  0  0  0  0  0  0  0  0  0
   12.7636   -2.4230   21.3232 Cl  0  0  0  0  0  0  0  0  0  0  0  0
   10.3358   -1.6010   22.1822 C   0  0  0  0  0  0  0  0  0  0  0  0
    9.4641   -0.8755   23.0098 C   0  0  0  0  0  0  0  0  0  0  0  0
    7.9743   -0.9153   22.7461 C   0  0  1  0  0  0  0  0  0  0  0  0
    7.2451   -0.2636   23.9447 C   0  0  0  0  0  0  0  0  0  0  0  0
    7.8781    0.9891   24.3144 N   0  0  0  0  0  0  0  0  0  0  0  0
    7.1437    2.2407   24.3698 C   0  0  0  0  0  0  0  0  0  0  0  0
    7.1082    3.0075   23.0405 C   0  0  0  0  0  0  0  0  0  0  0  0
    6.6950    4.4434   23.2697 N   0  0  0  0  0  0  0  0  0  0  0  0
    6.5282    5.3767   22.0789 C   0  0  0  0  0  0  0  0  0  0  0  0
    5.0738    5.7269   22.4710 C   0  0  0  0  0  0  0  0  0  0  0  0
    3.9047    5.5847   21.4900 C   0  0  0  0  0  0  0  0  0  0  0  0
    3.5190    6.9458   21.6816 O   0  0  0  0  0  0  0  0  0  0  0  0
    4.5753    7.1683   22.6168 C   0  0  0  0  0  0  0  0  0  0  0  0
    5.2410    4.7631   23.6667 C   0  0  0  0  0  0  0  0  0  0  0  0
    7.6284   -0.0979   21.4789 C   0  0  0  0  0  0  0  0  0  0  0  0
    8.1947    0.8812   21.0391 O   0  0  0  0  0  0  0  0  0  0  0  0
    6.5129   -0.6712   20.9166 N   0  0  0  0  0  0  0  0  0  0  0  0
    5.8656   -0.0727   19.8131 C   0  0  0  0  0  0  0  0  0  0  0  0
    6.3115   -0.3393   18.5460 C   0  0  0  0  0  0  0  0  0  0  0  0
    5.7758    0.1918   17.4187 N   0  0  0  0  0  0  0  0  0  0  0  0
    4.7645    1.0142   17.5742 C   0  0  0  0  0  0  0  0  0  0  0  0
    4.2076    1.3791   18.8341 C   0  0  0  0  0  0  0  0  0  0  0  0
    3.1223    2.2848   18.9464 C   0  0  0  0  0  0  0  0  0  0  0  0
    2.6121    2.6173   20.1717 C   0  0  0  0  0  0  0  0  0  0  0  0
    3.1551    2.0532   21.3451 C   0  0  0  0  0  0  0  0  0  0  0  0
    4.2041    1.1681   21.2650 C   0  0  0  0  0  0  0  0  0  0  0  0
    4.7659    0.8170   20.0045 C   0  0  0  0  0  0  0  0  0  0  0  0
    6.1343   -1.9388   21.5056 C   0  0  0  0  0  0  0  0  0  0  0  0
    7.3796   -2.3059   22.3313 C   0  0  2  0  0  0  0  0  0  0  0  0
    7.1215   -3.3624   23.4233 C   0  0  0  0  0  0  0  0  0  0  0  0
    6.7900   -4.6715   22.8904 N   0  0  0  0  0  0  0  0  0  0  0  0
    5.5329   -5.0950   22.6077 C   0  0  0  0  0  0  0  0  0  0  0  0
    5.4587   -6.2922   21.9842 N   0  0  0  0  0  0  0  0  0  0  0  0
    4.2405   -6.7119   21.6913 C   0  0  0  0  0  0  0  0  0  0  0  0
    3.0898   -5.9896   22.0030 C   0  0  0  0  0  0  0  0  0  0  0  0
    3.2883   -4.7800   22.6532 C   0  0  0  0  0  0  0  0  0  0  0  0
    4.4988   -4.3138   22.9630 N   0  0  0  0  0  0  0  0  0  0  0  0
   11.7857    0.6712   24.9558 H   0  0  0  0  0  0  0  0  0  0  0  0
   13.3388   -0.6577   23.4848 H   0  0  0  0  0  0  0  0  0  0  0  0
    9.9675   -2.2182   21.3675 H   0  0  0  0  0  0  0  0  0  0  0  0
    6.1913   -0.0789   23.7090 H   0  0  0  0  0  0  0  0  0  0  0  0
    7.2922   -0.9601   24.7923 H   0  0  0  0  0  0  0  0  0  0  0  0
    7.6232    2.8243   25.1611 H   0  0  0  0  0  0  0  0  0  0  0  0
    6.1163    2.0211   24.6801 H   0  0  0  0  0  0  0  0  0  0  0  0
    8.0815    3.0113   22.5500 H   0  0  0  0  0  0  0  0  0  0  0  0
    6.3861    2.5612   22.3466 H   0  0  0  0  0  0  0  0  0  0  0  0
    7.3752    4.8532   23.9331 H   0  0  0  0  0  0  0  0  0  0  0  0
    7.2360    6.2022   22.1324 H   0  0  0  0  0  0  0  0  0  0  0  0
    6.6388    4.8372   21.1393 H   0  0  0  0  0  0  0  0  0  0  0  0
    3.1051    4.9021   21.8009 H   0  0  0  0  0  0  0  0  0  0  0  0
    4.1843    5.3788   20.4481 H   0  0  0  0  0  0  0  0  0  0  0  0
    5.2586    7.9529   22.2652 H   0  0  0  0  0  0  0  0  0  0  0  0
    4.1817    7.4421   23.6052 H   0  0  0  0  0  0  0  0  0  0  0  0
    4.6228    3.8695   23.6278 H   0  0  0  0  0  0  0  0  0  0  0  0
    5.2023    5.2182   24.6529 H   0  0  0  0  0  0  0  0  0  0  0  0
    7.1537   -1.0153   18.4083 H   0  0  0  0  0  0  0  0  0  0  0  0
    4.3226    1.4390   16.6717 H   0  0  0  0  0  0  0  0  0  0  0  0
    2.7196    2.7137   18.0357 H   0  0  0  0  0  0  0  0  0  0  0  0
    1.7933    3.3295   20.2491 H   0  0  0  0  0  0  0  0  0  0  0  0
    2.7423    2.3179   22.3147 H   0  0  0  0  0  0  0  0  0  0  0  0
    4.6081    0.7408   22.1763 H   0  0  0  0  0  0  0  0  0  0  0  0
    5.8860   -2.6676   20.7283 H   0  0  0  0  0  0  0  0  0  0  0  0
    5.2501   -1.8262   22.1498 H   0  0  0  0  0  0  0  0  0  0  0  0
    8.1114   -2.7344   21.6392 H   0  0  0  0  0  0  0  0  0  0  0  0
    6.2823   -3.0418   24.0467 H   0  0  0  0  0  0  0  0  0  0  0  0
    8.0096   -3.4657   24.0609 H   0  0  0  0  0  0  0  0  0  0  0  0
    7.5203   -5.2991   22.5945 H   0  0  0  0  0  0  0  0  0  0  0  0
    4.2002   -7.6758   21.1808 H   0  0  0  0  0  0  0  0  0  0  0  0
    2.1038   -6.3637   21.7562 H   0  0  0  0  0  0  0  0  0  0  0  0
    2.4458   -4.1500   22.9456 H   0  0  0  0  0  0  0  0  0  0  0  0
  1  2  2  0
  2  3  1  0
  3  4  2  0
  4  5  1  0
  5  6  2  0
  6  7  1  0
  6  8  1  0
  8  9  2  0
  9 10  1  0
 10 11  1  1
 11 12  1  0
 12 13  1  0
 13 14  1  0
 14 15  1  0
 15 16  1  0
 16 17  1  0
 17 18  1  0
 18 19  1  0
 19 20  1  0
 17 21  1  0
 10 22  1  0
 22 23  2  0
 22 24  1  0
 24 25  1  0
 25 26  2  0
 26 27  1  0
 27 28  2  0
 28 29  1  0
 29 30  2  0
 30 31  1  0
 31 32  2  0
 32 33  1  0
 33 34  2  0
 24 35  1  0
 35 36  1  0
 36 37  1  0
 37 38  1  0
 38 39  1  0
 39 40  2  0
 40 41  1  0
 41 42  2  0
 42 43  1  0
 43 44  2  0
 12  2  1  0
 21 15  1  0
 34 25  1  0
 44 39  1  0
  9  3  1  0
 36 10  1  0
 20 17  1  0
 34 29  1  0
  4 45  1  0
  5 46  1  0
  8 47  1  0
 11 48  1  0
 11 49  1  0
 13 50  1  0
 13 51  1  0
 14 52  1  0
 14 53  1  0
 15 54  1  0
 16 55  1  0
 16 56  1  0
 18 57  1  0
 18 58  1  0
 20 59  1  0
 20 60  1  0
 21 61  1  0
 21 62  1  0
 26 63  1  0
 28 64  1  0
 30 65  1  0
 31 66  1  0
 32 67  1  0
 33 68  1  0
 35 69  1  0
 35 70  1  0
 36 71  1  6
 37 72  1  0
 37 73  1  0
 38 74  1  0
 41 75  1  0
 42 76  1  0
 43 77  1  0
M  CHG  1  15   1
M  END
>  <RMSD>  (2) 
0.17822648388404191

$$$$

     RDKit          3D

 37 39  0  0  0  0  0  0  0  0999 V2000
    7.6925    1.1570   21.3187 O   0  0  0  0  0  0  0  0  0  0  0  0
    7.2793    0.1294   21.8221 C   0  0  0  0  0  0  0  0  0  0  0  0
    6.3999   -0.8581   21.0384 C   0  0  0  0  0  0  0  0  0  0  0  0
    5.7677   -0.1993   19.8394 C   0  0  0  0  0  0  0  0  0  0  0  0
    6.2298   -0.4309   18.5690 C   0  0  0  0  0  0  0  0  0  0  0  0
    5.7579    0.1506   17.4341 N   0  0  0  0  0  0  0  0  0  0  0  0
    4.7781    1.0165   17.5773 C   0  0  0  0  0  0  0  0  0  0  0  0
    4.2026    1.3680   18.8318 C   0  0  0  0  0  0  0  0  0  0  0  0
    3.1494    2.3196   18.9441 C   0  0  0  0  0  0  0  0  0  0  0  0
    2.6276    2.6322   20.1728 C   0  0  0  0  0  0  0  0  0  0  0  0
    3.1308    2.0119   21.3363 C   0  0  0  0  0  0  0  0  0  0  0  0
    4.1468    1.0912   21.2567 C   0  0  0  0  0  0  0  0  0  0  0  0
    4.7117    0.7472   19.9963 C   0  0  0  0  0  0  0  0  0  0  0  0
    7.5846   -0.1946   23.1143 N   0  0  0  0  0  0  0  0  0  0  0  0
    8.3645    0.7137   23.9336 C   0  0  0  0  0  0  0  0  0  0  0  0
    9.8599    0.6567   23.6782 C   0  0  0  0  0  0  0  0  0  0  0  0
   10.6660    1.7715   23.9183 C   0  0  0  0  0  0  0  0  0  0  0  0
   12.0369    1.7088   23.6802 C   0  0  0  0  0  0  0  0  0  0  0  0
   12.6177    0.5493   23.1745 C   0  0  0  0  0  0  0  0  0  0  0  0
   11.8024   -0.5463   22.9231 C   0  0  0  0  0  0  0  0  0  0  0  0
   12.4679   -1.9548   22.1406 Cl  0  0  0  0  0  0  0  0  0  0  0  0
   10.4432   -0.5174   23.2042 C   0  0  0  0  0  0  0  0  0  0  0  0
    7.0259   -1.7045   20.7172 H   0  0  0  0  0  0  0  0  0  0  0  0
    5.6303   -1.2766   21.7012 H   0  0  0  0  0  0  0  0  0  0  0  0
    7.0423   -1.1397   18.4136 H   0  0  0  0  0  0  0  0  0  0  0  0
    4.3942    1.4915   16.6732 H   0  0  0  0  0  0  0  0  0  0  0  0
    2.7691    2.8071   18.0485 H   0  0  0  0  0  0  0  0  0  0  0  0
    1.8275    3.3645   20.2646 H   0  0  0  0  0  0  0  0  0  0  0  0
    2.7173    2.2687   22.3079 H   0  0  0  0  0  0  0  0  0  0  0  0
    4.5307    0.6302   22.1624 H   0  0  0  0  0  0  0  0  0  0  0  0
    7.2802   -1.0614   23.5202 H   0  0  0  0  0  0  0  0  0  0  0  0
    8.1487    0.5013   24.9890 H   0  0  0  0  0  0  0  0  0  0  0  0
    8.0059    1.7249   23.7335 H   0  0  0  0  0  0  0  0  0  0  0  0
   10.2225    2.7016   24.2755 H   0  0  0  0  0  0  0  0  0  0  0  0
   12.6590    2.5817   23.8608 H   0  0  0  0  0  0  0  0  0  0  0  0
   13.6835    0.4963   22.9670 H   0  0  0  0  0  0  0  0  0  0  0  0
    9.8381   -1.4043   23.0361 H   0  0  0  0  0  0  0  0  0  0  0  0
  1  2  2  0
  2  3  1  0
  3  4  1  0
  4  5  2  0
  5  6  1  0
  6  7  2  0
  7  8  1  0
  8  9  2  0
  9 10  1  0
 10 11  2  0
 11 12  1  0
 12 13  2  0
  2 14  1  0
 14 15  1  0
 15 16  1  0
 16 17  2  0
 17 18  1  0
 18 19  2  0
 19 20  1  0
 20 21  1  0
 20 22  2  0
 13  4  1  0
 22 16  1  0
 13  8  1  0
  3 23  1  0
  3 24  1  0
  5 25  1  0
  7 26  1  0
  9 27  1  0
 10 28  1  0
 11 29  1  0
 12 30  1  0
 14 31  1  0
 15 32  1  0
 15 33  1  0
 17 34  1  0
 18 35  1  0
 19 36  1  0
 22 37  1  0
M  END
>  <RMSD>  (3) 
0.03674028589769962

$$$$

     RDKit          3D

 62 67  0  0  0  0  0  0  0  0999 V2000
    7.1869   -3.2714   23.4713 C   0  0  0  0  0  0  0  0  0  0  0  0
    7.4058   -2.2608   22.3521 C   0  0  1  0  0  0  0  0  0  0  0  0
    6.1468   -1.9290   21.5354 C   0  0  0  0  0  0  0  0  0  0  0  0
    6.5117   -0.6720   20.9134 N   0  0  0  0  0  0  0  0  0  0  0  0
    5.8564   -0.0842   19.8096 C   0  0  0  0  0  0  0  0  0  0  0  0
    6.3110   -0.3403   18.5426 C   0  0  0  0  0  0  0  0  0  0  0  0
    5.7780    0.1941   17.4147 N   0  0  0  0  0  0  0  0  0  0  0  0
    4.7660    1.0162   17.5742 C   0  0  0  0  0  0  0  0  0  0  0  0
    4.2113    1.3786   18.8364 C   0  0  0  0  0  0  0  0  0  0  0  0
    3.1268    2.2864   18.9464 C   0  0  0  0  0  0  0  0  0  0  0  0
    2.6134    2.6128   20.1683 C   0  0  0  0  0  0  0  0  0  0  0  0
    3.1547    2.0519   21.3435 C   0  0  0  0  0  0  0  0  0  0  0  0
    4.2070    1.1715   21.2698 C   0  0  0  0  0  0  0  0  0  0  0  0
    4.7631    0.8119   20.0077 C   0  0  0  0  0  0  0  0  0  0  0  0
    7.6465   -0.0971   21.4360 C   0  0  0  0  0  0  0  0  0  0  0  0
    8.2236    0.8497   20.9386 O   0  0  0  0  0  0  0  0  0  0  0  0
    7.9975   -0.8666   22.7255 C   0  0  1  0  0  0  0  0  0  0  0  0
    7.2691   -0.2066   23.9169 C   0  0  0  0  0  0  0  0  0  0  0  0
    7.9064    1.0366   24.3019 N   0  0  0  0  0  0  0  0  0  0  0  0
    7.1548    2.2770   24.3812 C   0  0  0  0  0  0  0  0  0  0  0  0
    7.1104    3.0177   23.0430 C   0  0  0  0  0  0  0  0  0  0  0  0
    6.5111    4.3774   23.2112 N   0  0  0  0  0  0  0  0  0  0  0  0
    5.0069    4.5178   23.5034 C   0  0  0  0  0  0  0  0  0  0  0  0
    4.7876    5.4004   22.2360 C   0  0  0  0  0  0  0  0  0  0  0  0
    6.3271    5.2828   22.0034 C   0  0  0  0  0  0  0  0  0  0  0  0
    9.2134    1.0108   24.7083 C   0  0  0  0  0  0  0  0  0  0  0  0
    9.6792    1.7653   25.5474 O   0  0  0  0  0  0  0  0  0  0  0  0
   10.0459    0.0074   23.9633 C   0  0  0  0  0  0  0  0  0  0  0  0
   11.4206    0.0385   24.1773 C   0  0  0  0  0  0  0  0  0  0  0  0
   12.2682   -0.7067   23.3806 C   0  0  0  0  0  0  0  0  0  0  0  0
   11.7110   -1.5080   22.3835 C   0  0  0  0  0  0  0  0  0  0  0  0
   12.7621   -2.4179   21.3304 Cl  0  0  0  0  0  0  0  0  0  0  0  0
   10.3460   -1.5810   22.1862 C   0  0  0  0  0  0  0  0  0  0  0  0
    9.4799   -0.8389   22.9980 C   0  0  0  0  0  0  0  0  0  0  0  0
    6.8890   -4.2443   23.0611 H   0  0  0  0  0  0  0  0  0  0  0  0
    6.3895   -2.9531   24.1519 H   0  0  0  0  0  0  0  0  0  0  0  0
    8.0960   -3.4225   24.0644 H   0  0  0  0  0  0  0  0  0  0  0  0
    8.1224   -2.6946   21.6474 H   0  0  0  0  0  0  0  0  0  0  0  0
    5.2634   -1.8238   22.1871 H   0  0  0  0  0  0  0  0  0  0  0  0
    5.9145   -2.6801   20.7712 H   0  0  0  0  0  0  0  0  0  0  0  0
    7.1599   -1.0080   18.4062 H   0  0  0  0  0  0  0  0  0  0  0  0
    4.3132    1.4376   16.6771 H   0  0  0  0  0  0  0  0  0  0  0  0
    2.7228    2.7139   18.0347 H   0  0  0  0  0  0  0  0  0  0  0  0
    1.7990    3.3265   20.2522 H   0  0  0  0  0  0  0  0  0  0  0  0
    2.7336    2.3212   22.3077 H   0  0  0  0  0  0  0  0  0  0  0  0
    4.6088    0.7496   22.1867 H   0  0  0  0  0  0  0  0  0  0  0  0
    6.2159   -0.0165   23.6938 H   0  0  0  0  0  0  0  0  0  0  0  0
    7.3137   -0.8968   24.7668 H   0  0  0  0  0  0  0  0  0  0  0  0
    7.6494    2.8613   25.1643 H   0  0  0  0  0  0  0  0  0  0  0  0
    6.1392    2.0356   24.7182 H   0  0  0  0  0  0  0  0  0  0  0  0
    6.5176    2.4593   22.3141 H   0  0  0  0  0  0  0  0  0  0  0  0
    8.1060    3.1456   22.6222 H   0  0  0  0  0  0  0  0  0  0  0  0
    7.0835    4.8572   23.9164 H   0  0  0  0  0  0  0  0  0  0  0  0
    4.8644    5.0126   24.4594 H   0  0  0  0  0  0  0  0  0  0  0  0
    4.5081    3.5546   23.4769 H   0  0  0  0  0  0  0  0  0  0  0  0
    4.4058    6.4105   22.4067 H   0  0  0  0  0  0  0  0  0  0  0  0
    4.1926    4.8993   21.4632 H   0  0  0  0  0  0  0  0  0  0  0  0
    6.6209    4.7893   21.0801 H   0  0  0  0  0  0  0  0  0  0  0  0
    6.8844    6.2051   22.1511 H   0  0  0  0  0  0  0  0  0  0  0  0
   11.7946    0.6914   24.9572 H   0  0  0  0  0  0  0  0  0  0  0  0
   13.3452   -0.6525   23.4938 H   0  0  0  0  0  0  0  0  0  0  0  0
    9.9730   -2.2142   21.3870 H   0  0  0  0  0  0  0  0  0  0  0  0
  1  2  1  0
  2  3  1  0
  3  4  1  0
  4  5  1  0
  5  6  2  0
  6  7  1  0
  7  8  2  0
  8  9  1  0
  9 10  2  0
 10 11  1  0
 11 12  2  0
 12 13  1  0
 13 14  2  0
  4 15  1  0
 15 16  2  0
 15 17  1  0
 17 18  1  1
 18 19  1  0
 19 20  1  0
 20 21  1  0
 21 22  1  0
 22 23  1  0
 23 24  1  0
 24 25  1  0
 19 26  1  0
 26 27  2  0
 26 28  1  0
 28 29  2  0
 29 30  1  0
 30 31  2  0
 31 32  1  0
 31 33  1  0
 33 34  2  0
 17  2  1  0
 25 22  1  0
 34 28  1  0
 14  5  1  0
 34 17  1  0
 14  9  1  0
  1 35  1  0
  1 36  1  0
  1 37  1  0
  2 38  1  6
  3 39  1  0
  3 40  1  0
  6 41  1  0
  8 42  1  0
 10 43  1  0
 11 44  1  0
 12 45  1  0
 13 46  1  0
 18 47  1  0
 18 48  1  0
 20 49  1  0
 20 50  1  0
 21 51  1  0
 21 52  1  0
 22 53  1  0
 23 54  1  0
 23 55  1  0
 24 56  1  0
 24 57  1  0
 25 58  1  0
 25 59  1  0
 29 60  1  0
 30 61  1  0
 33 62  1  0
M  CHG  1  22   1
M  END
>  <RMSD>  (4) 
0.1792650615136136

$$$$

     RDKit          3D

 67 72  0  0  0  0  0  0  0  0999 V2000
    6.1309    4.2098   22.3192 C   0  0  0  0  0  0  0  0  0  0  0  0
    6.7836    3.1529   23.1008 N   0  0  0  0  0  0  0  0  0  0  0  0
    6.1800    2.9804   24.4400 C   0  0  0  0  0  0  0  0  0  0  0  0
    6.7577    1.7812   25.2320 C   0  0  0  0  0  0  0  0  0  0  0  0
    7.6536    0.9135   24.4905 N   0  0  0  0  0  0  0  0  0  0  0  0
    7.1774   -0.4017   24.1152 C   0  0  0  0  0  0  0  0  0  0  0  0
    7.8879   -0.9185   22.8437 C   0  0  2  0  0  0  0  0  0  0  0  0
    7.4257    0.0081   21.6933 C   0  0  0  0  0  0  0  0  0  0  0  0
    7.7146    1.1884   21.5497 O   0  0  0  0  0  0  0  0  0  0  0  0
    6.5292   -0.6753   20.9173 N   0  0  0  0  0  0  0  0  0  0  0  0
    5.8735   -0.0655   19.8170 C   0  0  0  0  0  0  0  0  0  0  0  0
    6.3041   -0.3483   18.5465 C   0  0  0  0  0  0  0  0  0  0  0  0
    5.7697    0.1840   17.4207 N   0  0  0  0  0  0  0  0  0  0  0  0
    4.7660    1.0171   17.5721 C   0  0  0  0  0  0  0  0  0  0  0  0
    4.2146    1.3868   18.8343 C   0  0  0  0  0  0  0  0  0  0  0  0
    3.1253    2.2921   18.9469 C   0  0  0  0  0  0  0  0  0  0  0  0
    2.6050    2.6139   20.1704 C   0  0  0  0  0  0  0  0  0  0  0  0
    3.1475    2.0455   21.3428 C   0  0  0  0  0  0  0  0  0  0  0  0
    4.2110    1.1779   21.2646 C   0  0  0  0  0  0  0  0  0  0  0  0
    4.7781    0.8293   20.0042 C   0  0  0  0  0  0  0  0  0  0  0  0
    6.1261   -1.9455   21.4944 C   0  0  0  0  0  0  0  0  0  0  0  0
    7.3359   -2.2962   22.3718 C   0  0  2  0  0  0  0  0  0  0  0  0
    7.0491   -3.3407   23.4684 C   0  0  0  0  0  0  0  0  0  0  0  0
    6.7302   -4.6529   22.9401 N   0  0  0  0  0  0  0  0  0  0  0  0
    5.4852   -5.0910   22.6565 C   0  0  0  0  0  0  0  0  0  0  0  0
    4.4174   -4.3558   23.0300 N   0  0  0  0  0  0  0  0  0  0  0  0
    3.2518   -4.9023   22.7071 C   0  0  0  0  0  0  0  0  0  0  0  0
    3.0548   -6.0383   22.0394 N   0  0  0  0  0  0  0  0  0  0  0  0
    4.1950   -6.6733   21.7385 C   0  0  0  0  0  0  0  0  0  0  0  0
    5.4184   -6.2788   22.0131 N   0  0  0  0  0  0  0  0  0  0  0  0
    9.3849   -0.8387   23.0919 C   0  0  0  0  0  0  0  0  0  0  0  0
   10.3001   -1.7689   22.5793 C   0  0  0  0  0  0  0  0  0  0  0  0
   11.6586   -1.5740   22.7441 C   0  0  0  0  0  0  0  0  0  0  0  0
   12.7742   -2.7108   22.0387 Cl  0  0  0  0  0  0  0  0  0  0  0  0
   12.1619   -0.4783   23.4408 C   0  0  0  0  0  0  0  0  0  0  0  0
   11.2688    0.4267   23.9790 C   0  0  0  0  0  0  0  0  0  0  0  0
    9.8945    0.2524   23.8158 C   0  0  0  0  0  0  0  0  0  0  0  0
    8.9716    1.2666   24.4249 C   0  0  0  0  0  0  0  0  0  0  0  0
    9.3655    2.3628   24.8170 O   0  0  0  0  0  0  0  0  0  0  0  0
    6.5811    4.2788   21.3283 H   0  0  0  0  0  0  0  0  0  0  0  0
    6.2440    5.1734   22.8282 H   0  0  0  0  0  0  0  0  0  0  0  0
    5.0614    3.9958   22.2041 H   0  0  0  0  0  0  0  0  0  0  0  0
    6.7739    2.2637   22.5774 H   0  0  0  0  0  0  0  0  0  0  0  0
    7.7821    3.3786   23.2362 H   0  0  0  0  0  0  0  0  0  0  0  0
    6.3423    3.8969   25.0218 H   0  0  0  0  0  0  0  0  0  0  0  0
    5.0907    2.8747   24.3479 H   0  0  0  0  0  0  0  0  0  0  0  0
    5.9416    1.1574   25.6146 H   0  0  0  0  0  0  0  0  0  0  0  0
    7.3023    2.1346   26.1105 H   0  0  0  0  0  0  0  0  0  0  0  0
    7.3499   -1.0988   24.9430 H   0  0  0  0  0  0  0  0  0  0  0  0
    6.1001   -0.3243   23.9215 H   0  0  0  0  0  0  0  0  0  0  0  0
    7.1413   -1.0299   18.4079 H   0  0  0  0  0  0  0  0  0  0  0  0
    4.3275    1.4420   16.6677 H   0  0  0  0  0  0  0  0  0  0  0  0
    2.7204    2.7242   18.0379 H   0  0  0  0  0  0  0  0  0  0  0  0
    1.7788    3.3155   20.2514 H   0  0  0  0  0  0  0  0  0  0  0  0
    2.7376    2.3167   22.3128 H   0  0  0  0  0  0  0  0  0  0  0  0
    4.6071    0.7416   22.1767 H   0  0  0  0  0  0  0  0  0  0  0  0
    5.2159   -1.8339   22.1028 H   0  0  0  0  0  0  0  0  0  0  0  0
    5.9136   -2.6811   20.7169 H   0  0  0  0  0  0  0  0  0  0  0  0
    8.0814   -2.7110   21.6900 H   0  0  0  0  0  0  0  0  0  0  0  0
    6.1874   -3.0193   24.0585 H   0  0  0  0  0  0  0  0  0  0  0  0
    7.9169   -3.4244   24.1423 H   0  0  0  0  0  0  0  0  0  0  0  0
    7.4750   -5.2458   22.6098 H   0  0  0  0  0  0  0  0  0  0  0  0
    2.3534   -4.3678   23.0250 H   0  0  0  0  0  0  0  0  0  0  0  0
    4.1305   -7.6205   21.2036 H   0  0  0  0  0  0  0  0  0  0  0  0
    9.9791   -2.6500   22.0382 H   0  0  0  0  0  0  0  0  0  0  0  0
   13.2332   -0.3488   23.5472 H   0  0  0  0  0  0  0  0  0  0  0  0
   11.6181    1.2903   24.5337 H   0  0  0  0  0  0  0  0  0  0  0  0
  1  2  1  0
  2  3  1  0
  3  4  1  0
  4  5  1  0
  5  6  1  0
  7  6  1  1
  7  8  1  0
  8  9  2  0
  8 10  1  0
 10 11  1  0
 11 12  2  0
 12 13  1  0
 13 14  2  0
 14 15  1  0
 15 16  2  0
 16 17  1  0
 17 18  2  0
 18 19  1  0
 19 20  2  0
 10 21  1  0
 21 22  1  0
 22 23  1  0
 23 24  1  0
 24 25  1  0
 25 26  2  0
 26 27  1  0
 27 28  2  0
 28 29  1  0
 29 30  2  0
  7 31  1  0
 31 32  2  0
 32 33  1  0
 33 34  1  0
 33 35  2  0
 35 36  1  0
 36 37  2  0
 37 38  1  0
 38 39  2  0
 38  5  1  0
 22  7  1  0
 30 25  1  0
 37 31  1  0
 20 11  1  0
 20 15  1  0
  1 40  1  0
  1 41  1  0
  1 42  1  0
  2 43  1  0
  2 44  1  0
  3 45  1  0
  3 46  1  0
  4 47  1  0
  4 48  1  0
  6 49  1  0
  6 50  1  0
 12 51  1  0
 14 52  1  0
 16 53  1  0
 17 54  1  0
 18 55  1  0
 19 56  1  0
 21 57  1  0
 21 58  1  0
 22 59  1  6
 23 60  1  0
 23 61  1  0
 24 62  1  0
 27 63  1  0
 29 64  1  0
 32 65  1  0
 35 66  1  0
 36 67  1  0
M  CHG  1   2   1
M  END
>  <RMSD>  (5) 
0.1751295500053264

$$$$

     RDKit          3D

 64 70  0  0  0  0  0  0  0  0999 V2000
    9.6802    1.6000   25.6549 O   0  0  0  0  0  0  0  0  0  0  0  0
    9.2055    0.8526   24.8121 C   0  0  0  0  0  0  0  0  0  0  0  0
   10.0418   -0.0872   24.0001 C   0  0  0  0  0  0  0  0  0  0  0  0
   11.4232   -0.0128   24.1757 C   0  0  0  0  0  0  0  0  0  0  0  0
   12.2726   -0.7292   23.3553 C   0  0  0  0  0  0  0  0  0  0  0  0
   11.7124   -1.5271   22.3573 C   0  0  0  0  0  0  0  0  0  0  0  0
   12.7673   -2.4281   21.3013 Cl  0  0  0  0  0  0  0  0  0  0  0  0
   10.3450   -1.6078   22.1679 C   0  0  0  0  0  0  0  0  0  0  0  0
    9.4740   -0.9043   23.0091 C   0  0  0  0  0  0  0  0  0  0  0  0
    7.9870   -0.9353   22.7371 C   0  0  1  0  0  0  0  0  0  0  0  0
    7.2639   -0.3667   23.9771 C   0  0  0  0  0  0  0  0  0  0  0  0
    7.8815    0.8509   24.4646 N   0  0  0  0  0  0  0  0  0  0  0  0
    7.1142    2.0746   24.6315 C   0  0  0  0  0  0  0  0  0  0  0  0
    7.5418    3.2401   23.7494 C   0  0  0  0  0  0  0  0  0  0  0  0
    6.9667    3.5306   22.5252 C   0  0  0  0  0  0  0  0  0  0  0  0
    7.3706    4.6957   21.8727 C   0  0  0  0  0  0  0  0  0  0  0  0
    8.2827    5.5282   22.3688 N   0  0  0  0  0  0  0  0  0  0  0  0
    8.8784    5.2299   23.5145 N   0  0  0  0  0  0  0  0  0  0  0  0
    8.5372    4.1279   24.1764 C   0  0  0  0  0  0  0  0  0  0  0  0
    7.6319   -0.1203   21.4679 C   0  0  0  0  0  0  0  0  0  0  0  0
    8.2147    0.8282   20.9956 O   0  0  0  0  0  0  0  0  0  0  0  0
    6.4967   -0.6854   20.9236 N   0  0  0  0  0  0  0  0  0  0  0  0
    5.8608   -0.0829   19.8147 C   0  0  0  0  0  0  0  0  0  0  0  0
    6.3095   -0.3419   18.5443 C   0  0  0  0  0  0  0  0  0  0  0  0
    5.7752    0.1946   17.4179 N   0  0  0  0  0  0  0  0  0  0  0  0
    4.7664    1.0197   17.5744 C   0  0  0  0  0  0  0  0  0  0  0  0
    4.2137    1.3833   18.8371 C   0  0  0  0  0  0  0  0  0  0  0  0
    3.1266    2.2875   18.9464 C   0  0  0  0  0  0  0  0  0  0  0  0
    2.6095    2.6141   20.1697 C   0  0  0  0  0  0  0  0  0  0  0  0
    3.1551    2.0541   21.3447 C   0  0  0  0  0  0  0  0  0  0  0  0
    4.2129    1.1792   21.2680 C   0  0  0  0  0  0  0  0  0  0  0  0
    4.7695    0.8199   20.0065 C   0  0  0  0  0  0  0  0  0  0  0  0
    6.1339   -1.9629   21.5015 C   0  0  0  0  0  0  0  0  0  0  0  0
    7.3933   -2.3123   22.3109 C   0  0  2  0  0  0  0  0  0  0  0  0
    7.1470   -3.3509   23.4108 C   0  0  0  0  0  0  0  0  0  0  0  0
    6.8336   -4.6643   22.8799 N   0  0  0  0  0  0  0  0  0  0  0  0
    5.5650   -5.0657   22.6264 C   0  0  0  0  0  0  0  0  0  0  0  0
    4.4981   -4.3802   22.9479 N   0  0  0  0  0  0  0  0  0  0  0  0
    3.3405   -5.0130   22.5868 N   0  0  0  0  0  0  0  0  0  0  0  0
    3.5438   -6.1446   22.0060 C   0  0  0  0  0  0  0  0  0  0  0  0
    5.2122   -6.5781   21.8327 S   0  0  0  0  0  0  0  0  0  0  0  0
   11.7942    0.6480   24.9537 H   0  0  0  0  0  0  0  0  0  0  0  0
   13.3507   -0.6663   23.4627 H   0  0  0  0  0  0  0  0  0  0  0  0
    9.9719   -2.2198   21.3547 H   0  0  0  0  0  0  0  0  0  0  0  0
    7.2770   -1.1301   24.7634 H   0  0  0  0  0  0  0  0  0  0  0  0
    6.2160   -0.1623   23.7393 H   0  0  0  0  0  0  0  0  0  0  0  0
    6.0771    1.8092   24.4175 H   0  0  0  0  0  0  0  0  0  0  0  0
    7.1813    2.3591   25.6851 H   0  0  0  0  0  0  0  0  0  0  0  0
    6.1921    2.9038   22.0885 H   0  0  0  0  0  0  0  0  0  0  0  0
    6.9625    4.9741   20.8996 H   0  0  0  0  0  0  0  0  0  0  0  0
    9.1119    3.9273   25.0795 H   0  0  0  0  0  0  0  0  0  0  0  0
    7.1527   -1.0145   18.3982 H   0  0  0  0  0  0  0  0  0  0  0  0
    4.3212    1.4421   16.6729 H   0  0  0  0  0  0  0  0  0  0  0  0
    2.7234    2.7113   18.0318 H   0  0  0  0  0  0  0  0  0  0  0  0
    1.7814    3.3129   20.2484 H   0  0  0  0  0  0  0  0  0  0  0  0
    2.7377    2.3179   22.3121 H   0  0  0  0  0  0  0  0  0  0  0  0
    4.6245    0.7558   22.1806 H   0  0  0  0  0  0  0  0  0  0  0  0
    5.2526   -1.8808   22.1546 H   0  0  0  0  0  0  0  0  0  0  0  0
    5.8917   -2.6990   20.7282 H   0  0  0  0  0  0  0  0  0  0  0  0
    8.1201   -2.7406   21.6158 H   0  0  0  0  0  0  0  0  0  0  0  0
    6.3020   -3.0467   24.0318 H   0  0  0  0  0  0  0  0  0  0  0  0
    8.0296   -3.4348   24.0577 H   0  0  0  0  0  0  0  0  0  0  0  0
    7.6024   -5.2378   22.5802 H   0  0  0  0  0  0  0  0  0  0  0  0
    2.7533   -6.7928   21.6478 H   0  0  0  0  0  0  0  0  0  0  0  0
  1  2  2  0
  2  3  1  0
  3  4  2  0
  4  5  1  0
  5  6  2  0
  6  7  1  0
  6  8  1  0
  8  9  2  0
  9 10  1  0
 10 11  1  1
 11 12  1  0
 12 13  1  0
 13 14  1  0
 14 15  2  0
 15 16  1  0
 16 17  2  0
 17 18  1  0
 18 19  2  0
 10 20  1  0
 20 21  2  0
 20 22  1  0
 22 23  1  0
 23 24  2  0
 24 25  1  0
 25 26  2  0
 26 27  1  0
 27 28  2  0
 28 29  1  0
 29 30  2  0
 30 31  1  0
 31 32  2  0
 22 33  1  0
 33 34  1  0
 34 35  1  0
 35 36  1  0
 36 37  1  0
 37 38  2  0
 38 39  1  0
 39 40  2  0
 40 41  1  0
 12  2  1  0
 19 14  1  0
 32 23  1  0
 41 37  1  0
  9  3  1  0
 34 10  1  0
 32 27  1  0
  4 42  1  0
  5 43  1  0
  8 44  1  0
 11 45  1  0
 11 46  1  0
 13 47  1  0
 13 48  1  0
 15 49  1  0
 16 50  1  0
 19 51  1  0
 24 52  1  0
 26 53  1  0
 28 54  1  0
 29 55  1  0
 30 56  1  0
 31 57  1  0
 33 58  1  0
 33 59  1  0
 34 60  1  6
 35 61  1  0
 35 62  1  0
 36 63  1  0
 40 64  1  0
M  END
>  <RMSD>  (6) 
0.18358974663916486

$$$$

     RDKit          3D

 55 60  0  0  0  0  0  0  0  0999 V2000
    7.0684   -3.2828   23.5079 C   0  0  0  0  0  0  0  0  0  0  0  0
    7.3556   -2.2817   22.3974 C   0  0  1  0  0  0  0  0  0  0  0  0
    6.1397   -1.9243   21.5324 C   0  0  0  0  0  0  0  0  0  0  0  0
    6.5326   -0.6602   20.9395 N   0  0  0  0  0  0  0  0  0  0  0  0
    5.8837   -0.0562   19.8307 C   0  0  0  0  0  0  0  0  0  0  0  0
    6.3063   -0.3448   18.5589 C   0  0  0  0  0  0  0  0  0  0  0  0
    5.7648    0.1758   17.4288 N   0  0  0  0  0  0  0  0  0  0  0  0
    4.7624    1.0130   17.5680 C   0  0  0  0  0  0  0  0  0  0  0  0
    4.2010    1.3814   18.8254 C   0  0  0  0  0  0  0  0  0  0  0  0
    3.1166    2.2975   18.9401 C   0  0  0  0  0  0  0  0  0  0  0  0
    2.6101    2.6209   20.1685 C   0  0  0  0  0  0  0  0  0  0  0  0
    3.1456    2.0358   21.3387 C   0  0  0  0  0  0  0  0  0  0  0  0
    4.1941    1.1510   21.2564 C   0  0  0  0  0  0  0  0  0  0  0  0
    4.7612    0.8168   19.9987 C   0  0  0  0  0  0  0  0  0  0  0  0
    7.5457   -0.0206   21.6247 C   0  0  0  0  0  0  0  0  0  0  0  0
    8.0220    1.0413   21.2949 O   0  0  0  0  0  0  0  0  0  0  0  0
    7.9276   -0.9091   22.8428 C   0  0  1  0  0  0  0  0  0  0  0  0
    7.2125   -0.3825   24.1136 C   0  0  0  0  0  0  0  0  0  0  0  0
    7.6775    0.9374   24.4819 N   0  0  0  0  0  0  0  0  0  0  0  0
    6.7780    1.8252   25.1811 C   0  0  0  0  0  0  0  0  0  0  0  0
    6.4235    3.0488   24.3966 C   0  0  0  0  0  0  0  0  0  0  0  0
    6.2453    4.3565   24.9060 C   0  0  0  0  0  0  0  0  0  0  0  0
    5.8907    5.0712   23.8160 C   0  0  0  0  0  0  0  0  0  0  0  0
    5.8539    4.2790   22.7375 O   0  0  0  0  0  0  0  0  0  0  0  0
    6.1874    2.9942   23.1066 N   0  0  0  0  0  0  0  0  0  0  0  0
    8.9974    1.2906   24.4248 C   0  0  0  0  0  0  0  0  0  0  0  0
    9.3976    2.3595   24.8599 O   0  0  0  0  0  0  0  0  0  0  0  0
    9.9210    0.2637   23.8235 C   0  0  0  0  0  0  0  0  0  0  0  0
   11.3000    0.4371   23.9759 C   0  0  0  0  0  0  0  0  0  0  0  0
   12.1941   -0.4704   23.4380 C   0  0  0  0  0  0  0  0  0  0  0  0
   11.6724   -1.5633   22.7530 C   0  0  0  0  0  0  0  0  0  0  0  0
   12.5213   -2.4528   22.2105 F   0  0  0  0  0  0  0  0  0  0  0  0
   10.3182   -1.7682   22.5841 C   0  0  0  0  0  0  0  0  0  0  0  0
    9.4157   -0.8410   23.1143 C   0  0  0  0  0  0  0  0  0  0  0  0
    6.2487   -2.9421   24.1453 H   0  0  0  0  0  0  0  0  0  0  0  0
    7.9372   -3.4276   24.1575 H   0  0  0  0  0  0  0  0  0  0  0  0
    6.7881   -4.2593   23.1043 H   0  0  0  0  0  0  0  0  0  0  0  0
    8.0833   -2.7297   21.7170 H   0  0  0  0  0  0  0  0  0  0  0  0
    5.9468   -2.6672   20.7566 H   0  0  0  0  0  0  0  0  0  0  0  0
    5.2320   -1.8490   22.1546 H   0  0  0  0  0  0  0  0  0  0  0  0
    7.1414   -1.0251   18.4078 H   0  0  0  0  0  0  0  0  0  0  0  0
    4.3359    1.4406   16.6580 H   0  0  0  0  0  0  0  0  0  0  0  0
    2.7087    2.7446   18.0338 H   0  0  0  0  0  0  0  0  0  0  0  0
    1.7891    3.3301   20.2599 H   0  0  0  0  0  0  0  0  0  0  0  0
    2.7519    2.3098   22.3147 H   0  0  0  0  0  0  0  0  0  0  0  0
    4.6314    0.7367   22.1634 H   0  0  0  0  0  0  0  0  0  0  0  0
    7.3744   -1.0776   24.9509 H   0  0  0  0  0  0  0  0  0  0  0  0
    6.1362   -0.3095   23.9230 H   0  0  0  0  0  0  0  0  0  0  0  0
    7.2203    2.1299   26.1307 H   0  0  0  0  0  0  0  0  0  0  0  0
    5.8640    1.2745   25.4143 H   0  0  0  0  0  0  0  0  0  0  0  0
    6.3661    4.6834   25.9301 H   0  0  0  0  0  0  0  0  0  0  0  0
    5.6414    6.1160   23.6590 H   0  0  0  0  0  0  0  0  0  0  0  0
   11.6633    1.2981   24.5256 H   0  0  0  0  0  0  0  0  0  0  0  0
   13.2712   -0.3490   23.5234 H   0  0  0  0  0  0  0  0  0  0  0  0
    9.9857   -2.6492   22.0446 H   0  0  0  0  0  0  0  0  0  0  0  0
  1  2  1  0
  2  3  1  0
  3  4  1  0
  4  5  1  0
  5  6  2  0
  6  7  1  0
  7  8  2  0
  8  9  1  0
  9 10  2  0
 10 11  1  0
 11 12  2  0
 12 13  1  0
 13 14  2  0
  4 15  1  0
 15 16  2  0
 15 17  1  0
 17 18  1  1
 18 19  1  0
 19 20  1  0
 20 21  1  0
 21 22  1  0
 22 23  2  0
 23 24  1  0
 24 25  1  0
 19 26  1  0
 26 27  2  0
 26 28  1  0
 28 29  2  0
 29 30  1  0
 30 31  2  0
 31 32  1  0
 31 33  1  0
 33 34  2  0
 17  2  1  0
 25 21  2  0
 34 28  1  0
 14  5  1  0
 34 17  1  0
 14  9  1  0
  1 35  1  0
  1 36  1  0
  1 37  1  0
  2 38  1  6
  3 39  1  0
  3 40  1  0
  6 41  1  0
  8 42  1  0
 10 43  1  0
 11 44  1  0
 12 45  1  0
 13 46  1  0
 18 47  1  0
 18 48  1  0
 20 49  1  0
 20 50  1  0
 22 51  1  0
 23 52  1  0
 29 53  1  0
 30 54  1  0
 33 55  1  0
M  END
>  <RMSD>  (7) 
0.17220761969790904

$$$$

     RDKit          3D

 66 71  0  0  0  0  0  0  0  0999 V2000
    6.1237    4.2376   22.3425 C   0  0  0  0  0  0  0  0  0  0  0  0
    6.7433    3.2231   23.1763 N   0  0  0  0  0  0  0  0  0  0  0  0
    6.2350    2.9720   24.4038 C   0  0  0  0  0  0  0  0  0  0  0  0
    5.3533    3.6497   24.9194 O   0  0  0  0  0  0  0  0  0  0  0  0
    6.8053    1.7864   25.1943 C   0  0  0  0  0  0  0  0  0  0  0  0
    7.6916    0.8851   24.4928 N   0  0  0  0  0  0  0  0  0  0  0  0
    7.1987   -0.4249   24.0951 C   0  0  0  0  0  0  0  0  0  0  0  0
    7.9084   -0.9449   22.8171 C   0  0  2  0  0  0  0  0  0  0  0  0
    7.5167   -0.0472   21.6175 C   0  0  0  0  0  0  0  0  0  0  0  0
    7.9780    1.0399   21.3249 O   0  0  0  0  0  0  0  0  0  0  0  0
    6.5156   -0.6795   20.9198 N   0  0  0  0  0  0  0  0  0  0  0  0
    5.8736   -0.0664   19.8182 C   0  0  0  0  0  0  0  0  0  0  0  0
    6.3054   -0.3446   18.5476 C   0  0  0  0  0  0  0  0  0  0  0  0
    5.7716    0.1856   17.4165 N   0  0  0  0  0  0  0  0  0  0  0  0
    4.7671    1.0179   17.5698 C   0  0  0  0  0  0  0  0  0  0  0  0
    4.2161    1.3876   18.8328 C   0  0  0  0  0  0  0  0  0  0  0  0
    3.1274    2.2928   18.9446 C   0  0  0  0  0  0  0  0  0  0  0  0
    2.6084    2.6125   20.1691 C   0  0  0  0  0  0  0  0  0  0  0  0
    3.1480    2.0435   21.3436 C   0  0  0  0  0  0  0  0  0  0  0  0
    4.2094    1.1762   21.2653 C   0  0  0  0  0  0  0  0  0  0  0  0
    4.7752    0.8288   20.0039 C   0  0  0  0  0  0  0  0  0  0  0  0
    6.1137   -1.9490   21.4848 C   0  0  0  0  0  0  0  0  0  0  0  0
    7.3445   -2.3119   22.3337 C   0  0  2  0  0  0  0  0  0  0  0  0
    7.0945   -3.3687   23.4225 C   0  0  0  0  0  0  0  0  0  0  0  0
    6.8089   -4.7069   22.9433 N   0  0  0  0  0  0  0  0  0  0  0  0
    5.5998   -5.0992   22.4610 C   0  0  0  0  0  0  0  0  0  0  0  0
    4.3833   -4.4874   22.8112 C   0  0  0  0  0  0  0  0  0  0  0  0
    3.2470   -5.0005   22.2215 C   0  0  0  0  0  0  0  0  0  0  0  0
    3.2633   -5.9843   21.3198 N   0  0  0  0  0  0  0  0  0  0  0  0
    4.4666   -6.4786   21.0734 C   0  0  0  0  0  0  0  0  0  0  0  0
    5.6224   -6.1393   21.6179 N   0  0  0  0  0  0  0  0  0  0  0  0
    9.4004   -0.8819   23.0731 C   0  0  0  0  0  0  0  0  0  0  0  0
   10.3148   -1.7994   22.5403 C   0  0  0  0  0  0  0  0  0  0  0  0
   11.6751   -1.6036   22.7077 C   0  0  0  0  0  0  0  0  0  0  0  0
   12.7872   -2.7472   22.0078 Cl  0  0  0  0  0  0  0  0  0  0  0  0
   12.1847   -0.5089   23.4033 C   0  0  0  0  0  0  0  0  0  0  0  0
   11.2918    0.3906   23.9474 C   0  0  0  0  0  0  0  0  0  0  0  0
    9.9180    0.1991   23.8019 C   0  0  0  0  0  0  0  0  0  0  0  0
    9.0242    1.2002   24.4661 C   0  0  0  0  0  0  0  0  0  0  0  0
    9.4630    2.2412   24.9358 O   0  0  0  0  0  0  0  0  0  0  0  0
    6.1452    5.2201   22.8253 H   0  0  0  0  0  0  0  0  0  0  0  0
    6.6770    4.2939   21.4019 H   0  0  0  0  0  0  0  0  0  0  0  0
    5.0780    3.9825   22.1246 H   0  0  0  0  0  0  0  0  0  0  0  0
    7.3870    2.5771   22.7326 H   0  0  0  0  0  0  0  0  0  0  0  0
    7.3353    2.2040   26.0553 H   0  0  0  0  0  0  0  0  0  0  0  0
    5.9413    1.2346   25.5771 H   0  0  0  0  0  0  0  0  0  0  0  0
    7.3599   -1.1490   24.9040 H   0  0  0  0  0  0  0  0  0  0  0  0
    6.1201   -0.3425   23.9196 H   0  0  0  0  0  0  0  0  0  0  0  0
    7.1442   -1.0257   18.4109 H   0  0  0  0  0  0  0  0  0  0  0  0
    4.3188    1.4405   16.6689 H   0  0  0  0  0  0  0  0  0  0  0  0
    2.7222    2.7235   18.0349 H   0  0  0  0  0  0  0  0  0  0  0  0
    1.7817    3.3113   20.2539 H   0  0  0  0  0  0  0  0  0  0  0  0
    2.7402    2.3181   22.3141 H   0  0  0  0  0  0  0  0  0  0  0  0
    4.6120    0.7457   22.1773 H   0  0  0  0  0  0  0  0  0  0  0  0
    5.8874   -2.6665   20.6920 H   0  0  0  0  0  0  0  0  0  0  0  0
    5.2046   -1.8334   22.0971 H   0  0  0  0  0  0  0  0  0  0  0  0
    8.0798   -2.7034   21.6250 H   0  0  0  0  0  0  0  0  0  0  0  0
    7.9518   -3.4367   24.1023 H   0  0  0  0  0  0  0  0  0  0  0  0
    6.2439   -3.0648   24.0356 H   0  0  0  0  0  0  0  0  0  0  0  0
    7.5643   -5.2307   22.5205 H   0  0  0  0  0  0  0  0  0  0  0  0
    4.3341   -3.6322   23.4699 H   0  0  0  0  0  0  0  0  0  0  0  0
    2.2593   -4.6029   22.4549 H   0  0  0  0  0  0  0  0  0  0  0  0
    4.5240   -7.2420   20.3125 H   0  0  0  0  0  0  0  0  0  0  0  0
    9.9918   -2.6801   21.9983 H   0  0  0  0  0  0  0  0  0  0  0  0
   13.2580   -0.3844   23.5086 H   0  0  0  0  0  0  0  0  0  0  0  0
   11.6358    1.2583   24.4992 H   0  0  0  0  0  0  0  0  0  0  0  0
  1  2  1  0
  2  3  1  0
  3  4  2  0
  3  5  1  0
  5  6  1  0
  6  7  1  0
  8  7  1  1
  8  9  1  0
  9 10  2  0
  9 11  1  0
 11 12  1  0
 12 13  2  0
 13 14  1  0
 14 15  2  0
 15 16  1  0
 16 17  2  0
 17 18  1  0
 18 19  2  0
 19 20  1  0
 20 21  2  0
 11 22  1  0
 22 23  1  0
 23 24  1  0
 24 25  1  0
 25 26  1  0
 26 27  2  0
 27 28  1  0
 28 29  2  0
 29 30  1  0
 30 31  2  0
  8 32  1  0
 32 33  2  0
 33 34  1  0
 34 35  1  0
 34 36  2  0
 36 37  1  0
 37 38  2  0
 38 39  1  0
 39 40  2  0
 39  6  1  0
 23  8  1  0
 31 26  1  0
 38 32  1  0
 21 12  1  0
 21 16  1  0
  1 41  1  0
  1 42  1  0
  1 43  1  0
  2 44  1  0
  5 45  1  0
  5 46  1  0
  7 47  1  0
  7 48  1  0
 13 49  1  0
 15 50  1  0
 17 51  1  0
 18 52  1  0
 19 53  1  0
 20 54  1  0
 22 55  1  0
 22 56  1  0
 23 57  1  6
 24 58  1  0
 24 59  1  0
 25 60  1  0
 27 61  1  0
 28 62  1  0
 30 63  1  0
 33 64  1  0
 36 65  1  0
 37 66  1  0
M  END
>  <RMSD>  (8) 
0.17834705746742227

$$$$

     RDKit          3D

 60 64  0  0  0  0  0  0  0  0999 V2000
    6.1101    4.2730   22.3465 C   0  0  0  0  0  0  0  0  0  0  0  0
    6.7184    3.2669   23.1968 N   0  0  0  0  0  0  0  0  0  0  0  0
    6.2192    3.0202   24.4262 C   0  0  0  0  0  0  0  0  0  0  0  0
    5.3361    3.6980   24.9388 O   0  0  0  0  0  0  0  0  0  0  0  0
    6.7854    1.8178   25.1971 C   0  0  0  0  0  0  0  0  0  0  0  0
    7.6831    0.9400   24.4791 N   0  0  0  0  0  0  0  0  0  0  0  0
    7.2052   -0.3793   24.1177 C   0  0  0  0  0  0  0  0  0  0  0  0
    7.9137   -0.9054   22.8493 C   0  0  2  0  0  0  0  0  0  0  0  0
    7.5301   -0.0347   21.6280 C   0  0  0  0  0  0  0  0  0  0  0  0
    7.9996    1.0445   21.3137 O   0  0  0  0  0  0  0  0  0  0  0  0
    6.5302   -0.6760   20.9333 N   0  0  0  0  0  0  0  0  0  0  0  0
    5.8801   -0.0667   19.8252 C   0  0  0  0  0  0  0  0  0  0  0  0
    6.3077   -0.3411   18.5529 C   0  0  0  0  0  0  0  0  0  0  0  0
    5.7641    0.1830   17.4232 N   0  0  0  0  0  0  0  0  0  0  0  0
    4.7584    1.0138   17.5720 C   0  0  0  0  0  0  0  0  0  0  0  0
    4.2063    1.3871   18.8325 C   0  0  0  0  0  0  0  0  0  0  0  0
    3.1177    2.2942   18.9437 C   0  0  0  0  0  0  0  0  0  0  0  0
    2.6013    2.6135   20.1700 C   0  0  0  0  0  0  0  0  0  0  0  0
    3.1457    2.0398   21.3408 C   0  0  0  0  0  0  0  0  0  0  0  0
    4.2057    1.1703   21.2588 C   0  0  0  0  0  0  0  0  0  0  0  0
    4.7747    0.8262   20.0017 C   0  0  0  0  0  0  0  0  0  0  0  0
    6.1265   -1.9372   21.5189 C   0  0  0  0  0  0  0  0  0  0  0  0
    7.3140   -2.2877   22.4305 C   0  0  2  0  0  0  0  0  0  0  0  0
    6.9344   -3.2093   23.4900 N   0  0  0  0  0  0  0  0  0  0  0  0
    7.8913   -4.0160   24.0641 C   0  0  0  0  0  0  0  0  0  0  0  0
    7.4869   -4.7823   25.3088 C   0  0  0  0  0  0  0  0  0  0  0  0
    9.0158   -4.1036   23.6059 O   0  0  0  0  0  0  0  0  0  0  0  0
    9.4094   -0.8307   23.0991 C   0  0  0  0  0  0  0  0  0  0  0  0
   10.3113   -1.7383   22.5379 C   0  0  0  0  0  0  0  0  0  0  0  0
   11.6715   -1.5575   22.7054 C   0  0  0  0  0  0  0  0  0  0  0  0
   12.7732   -2.7146   22.0103 Cl  0  0  0  0  0  0  0  0  0  0  0  0
   12.1863   -0.4774   23.4215 C   0  0  0  0  0  0  0  0  0  0  0  0
   11.3010    0.4235   23.9769 C   0  0  0  0  0  0  0  0  0  0  0  0
    9.9272    0.2500   23.8286 C   0  0  0  0  0  0  0  0  0  0  0  0
    9.0135    1.2647   24.4512 C   0  0  0  0  0  0  0  0  0  0  0  0
    9.4169    2.3362   24.8839 O   0  0  0  0  0  0  0  0  0  0  0  0
    5.0639    4.0156   22.1321 H   0  0  0  0  0  0  0  0  0  0  0  0
    6.1352    5.2611   22.8207 H   0  0  0  0  0  0  0  0  0  0  0  0
    6.6707    4.2996   21.4072 H   0  0  0  0  0  0  0  0  0  0  0  0
    7.5067    2.7439   22.8387 H   0  0  0  0  0  0  0  0  0  0  0  0
    7.2868    2.2076   26.0896 H   0  0  0  0  0  0  0  0  0  0  0  0
    5.9135    1.2448   25.5289 H   0  0  0  0  0  0  0  0  0  0  0  0
    7.3747   -1.0940   24.9329 H   0  0  0  0  0  0  0  0  0  0  0  0
    6.1291   -0.3087   23.9202 H   0  0  0  0  0  0  0  0  0  0  0  0
    7.1411   -1.0260   18.4075 H   0  0  0  0  0  0  0  0  0  0  0  0
    4.3368    1.4383   16.6600 H   0  0  0  0  0  0  0  0  0  0  0  0
    2.7175    2.7334   18.0337 H   0  0  0  0  0  0  0  0  0  0  0  0
    1.7830    3.3236   20.2576 H   0  0  0  0  0  0  0  0  0  0  0  0
    2.7467    2.3166   22.3143 H   0  0  0  0  0  0  0  0  0  0  0  0
    4.6198    0.7379   22.1642 H   0  0  0  0  0  0  0  0  0  0  0  0
    5.9381   -2.6868   20.7458 H   0  0  0  0  0  0  0  0  0  0  0  0
    5.2124   -1.8390   22.1276 H   0  0  0  0  0  0  0  0  0  0  0  0
    8.0787   -2.7978   21.8465 H   0  0  0  0  0  0  0  0  0  0  0  0
    6.1049   -2.9829   24.0289 H   0  0  0  0  0  0  0  0  0  0  0  0
    8.3701   -5.3125   25.6692 H   0  0  0  0  0  0  0  0  0  0  0  0
    7.1392   -4.1117   26.1001 H   0  0  0  0  0  0  0  0  0  0  0  0
    6.6909   -5.5130   25.1366 H   0  0  0  0  0  0  0  0  0  0  0  0
    9.9728   -2.6247   22.0227 H   0  0  0  0  0  0  0  0  0  0  0  0
   13.2565   -0.3507   23.5276 H   0  0  0  0  0  0  0  0  0  0  0  0
   11.6373    1.2943   24.5260 H   0  0  0  0  0  0  0  0  0  0  0  0
  1  2  1  0
  2  3  1  0
  3  4  2  0
  3  5  1  0
  5  6  1  0
  6  7  1  0
  8  7  1  1
  8  9  1  0
  9 10  2  0
  9 11  1  0
 11 12  1  0
 12 13  2  0
 13 14  1  0
 14 15  2  0
 15 16  1  0
 16 17  2  0
 17 18  1  0
 18 19  2  0
 19 20  1  0
 20 21  2  0
 11 22  1  0
 22 23  1  0
 23 24  1  0
 24 25  1  0
 25 26  1  0
 25 27  2  0
  8 28  1  0
 28 29  2  0
 29 30  1  0
 30 31  1  0
 30 32  2  0
 32 33  1  0
 33 34  2  0
 34 35  1  0
 35 36  2  0
 35  6  1  0
 23  8  1  0
 34 28  1  0
 21 12  1  0
 21 16  1  0
  1 37  1  0
  1 38  1  0
  1 39  1  0
  2 40  1  0
  5 41  1  0
  5 42  1  0
  7 43  1  0
  7 44  1  0
 13 45  1  0
 15 46  1  0
 17 47  1  0
 18 48  1  0
 19 49  1  0
 20 50  1  0
 22 51  1  0
 22 52  1  0
 23 53  1  6
 24 54  1  0
 26 55  1  0
 26 56  1  0
 26 57  1  0
 29 58  1  0
 32 59  1  0
 33 60  1  0
M  END
>  <RMSD>  (9) 
0.17567201200996255

$$$$

     RDKit          3D

 60 64  0  0  0  0  0  0  0  0999 V2000
    7.4966   -4.7974   25.0730 C   0  0  0  0  0  0  0  0  0  0  0  0
    8.0268   -3.8820   23.9886 C   0  0  0  0  0  0  0  0  0  0  0  0
    6.9500   -3.1377   23.4466 O   0  0  0  0  0  0  0  0  0  0  0  0
    7.3339   -2.2755   22.4069 C   0  0  1  0  0  0  0  0  0  0  0  0
    6.1284   -1.9241   21.5329 C   0  0  0  0  0  0  0  0  0  0  0  0
    6.5342   -0.6645   20.9379 N   0  0  0  0  0  0  0  0  0  0  0  0
    5.8825   -0.0579   19.8282 C   0  0  0  0  0  0  0  0  0  0  0  0
    6.3053   -0.3468   18.5574 C   0  0  0  0  0  0  0  0  0  0  0  0
    5.7660    0.1755   17.4265 N   0  0  0  0  0  0  0  0  0  0  0  0
    4.7637    1.0126   17.5672 C   0  0  0  0  0  0  0  0  0  0  0  0
    4.2017    1.3817   18.8247 C   0  0  0  0  0  0  0  0  0  0  0  0
    3.1166    2.2968   18.9386 C   0  0  0  0  0  0  0  0  0  0  0  0
    2.6069    2.6164   20.1687 C   0  0  0  0  0  0  0  0  0  0  0  0
    3.1457    2.0387   21.3421 C   0  0  0  0  0  0  0  0  0  0  0  0
    4.2026    1.1668   21.2593 C   0  0  0  0  0  0  0  0  0  0  0  0
    4.7659    0.8213   19.9983 C   0  0  0  0  0  0  0  0  0  0  0  0
    7.5411   -0.0264   21.6289 C   0  0  0  0  0  0  0  0  0  0  0  0
    8.0066    1.0547   21.3264 O   0  0  0  0  0  0  0  0  0  0  0  0
    7.9224   -0.9063   22.8453 C   0  0  1  0  0  0  0  0  0  0  0  0
    7.2015   -0.3836   24.1151 C   0  0  0  0  0  0  0  0  0  0  0  0
    7.6701    0.9413   24.4834 N   0  0  0  0  0  0  0  0  0  0  0  0
    6.7713    1.8213   25.2021 C   0  0  0  0  0  0  0  0  0  0  0  0
    6.2137    3.0264   24.4357 C   0  0  0  0  0  0  0  0  0  0  0  0
    5.3360    3.7048   24.9488 O   0  0  0  0  0  0  0  0  0  0  0  0
    6.7091    3.2585   23.2016 N   0  0  0  0  0  0  0  0  0  0  0  0
    6.1127    4.2699   22.3565 C   0  0  0  0  0  0  0  0  0  0  0  0
    8.9984    1.2705   24.4494 C   0  0  0  0  0  0  0  0  0  0  0  0
    9.3980    2.3476   24.8704 O   0  0  0  0  0  0  0  0  0  0  0  0
    9.9156    0.2471   23.8399 C   0  0  0  0  0  0  0  0  0  0  0  0
   11.2925    0.4220   23.9891 C   0  0  0  0  0  0  0  0  0  0  0  0
   12.1825   -0.4851   23.4417 C   0  0  0  0  0  0  0  0  0  0  0  0
   11.6760   -1.5789   22.7366 C   0  0  0  0  0  0  0  0  0  0  0  0
   12.7799   -2.7166   22.0130 Cl  0  0  0  0  0  0  0  0  0  0  0  0
   10.3127   -1.7688   22.5757 C   0  0  0  0  0  0  0  0  0  0  0  0
    9.4090   -0.8464   23.1166 C   0  0  0  0  0  0  0  0  0  0  0  0
    8.3094   -5.4122   25.4743 H   0  0  0  0  0  0  0  0  0  0  0  0
    6.7269   -5.4672   24.6782 H   0  0  0  0  0  0  0  0  0  0  0  0
    7.0680   -4.2204   25.8972 H   0  0  0  0  0  0  0  0  0  0  0  0
    8.8199   -3.2285   24.3907 H   0  0  0  0  0  0  0  0  0  0  0  0
    8.4761   -4.4745   23.1833 H   0  0  0  0  0  0  0  0  0  0  0  0
    8.0542   -2.7868   21.7598 H   0  0  0  0  0  0  0  0  0  0  0  0
    5.2305   -1.8647   22.1679 H   0  0  0  0  0  0  0  0  0  0  0  0
    5.9486   -2.6707   20.7553 H   0  0  0  0  0  0  0  0  0  0  0  0
    7.1403   -1.0279   18.4078 H   0  0  0  0  0  0  0  0  0  0  0  0
    4.3386    1.4420   16.6575 H   0  0  0  0  0  0  0  0  0  0  0  0
    2.7087    2.7447   18.0339 H   0  0  0  0  0  0  0  0  0  0  0  0
    1.7864    3.3234   20.2612 H   0  0  0  0  0  0  0  0  0  0  0  0
    2.7494    2.3115   22.3185 H   0  0  0  0  0  0  0  0  0  0  0  0
    4.6223    0.7334   22.1634 H   0  0  0  0  0  0  0  0  0  0  0  0
    6.1277   -0.3271   23.9191 H   0  0  0  0  0  0  0  0  0  0  0  0
    7.3551   -1.0927   24.9397 H   0  0  0  0  0  0  0  0  0  0  0  0
    7.2607    2.1910   26.1093 H   0  0  0  0  0  0  0  0  0  0  0  0
    5.9041    1.2386   25.5288 H   0  0  0  0  0  0  0  0  0  0  0  0
    7.5456    2.7950   22.8768 H   0  0  0  0  0  0  0  0  0  0  0  0
    6.6663    4.2965   21.4159 H   0  0  0  0  0  0  0  0  0  0  0  0
    6.1387    5.2591   22.8243 H   0  0  0  0  0  0  0  0  0  0  0  0
    5.0692    4.0200   22.1356 H   0  0  0  0  0  0  0  0  0  0  0  0
   11.6527    1.2861   24.5389 H   0  0  0  0  0  0  0  0  0  0  0  0
   13.2572   -0.3502   23.5348 H   0  0  0  0  0  0  0  0  0  0  0  0
    9.9604   -2.6448   22.0372 H   0  0  0  0  0  0  0  0  0  0  0  0
  1  2  1  0
  2  3  1  0
  3  4  1  0
  4  5  1  0
  5  6  1  0
  6  7  1  0
  7  8  2  0
  8  9  1  0
  9 10  2  0
 10 11  1  0
 11 12  2  0
 12 13  1  0
 13 14  2  0
 14 15  1  0
 15 16  2  0
  6 17  1  0
 17 18  2  0
 17 19  1  0
 19 20  1  1
 20 21  1  0
 21 22  1  0
 22 23  1  0
 23 24  2  0
 23 25  1  0
 25 26  1  0
 21 27  1  0
 27 28  2  0
 27 29  1  0
 29 30  2  0
 30 31  1  0
 31 32  2  0
 32 33  1  0
 32 34  1  0
 34 35  2  0
 19  4  1  0
 35 29  1  0
 16  7  1  0
 35 19  1  0
 16 11  1  0
  1 36  1  0
  1 37  1  0
  1 38  1  0
  2 39  1  0
  2 40  1  0
  4 41  1  6
  5 42  1  0
  5 43  1  0
  8 44  1  0
 10 45  1  0
 12 46  1  0
 13 47  1  0
 14 48  1  0
 15 49  1  0
 20 50  1  0
 20 51  1  0
 22 52  1  0
 22 53  1  0
 25 54  1  0
 26 55  1  0
 26 56  1  0
 26 57  1  0
 30 58  1  0
 31 59  1  0
 34 60  1  0
M  END
>  <RMSD>  (10) 
0.1725248269235921

$$$$

     RDKit          3D

 58 63  0  0  0  0  0  0  0  0999 V2000
    7.0670   -3.2858   23.5060 C   0  0  0  0  0  0  0  0  0  0  0  0
    7.3544   -2.2816   22.3974 C   0  0  1  0  0  0  0  0  0  0  0  0
    6.1374   -1.9287   21.5312 C   0  0  0  0  0  0  0  0  0  0  0  0
    6.5300   -0.6650   20.9379 N   0  0  0  0  0  0  0  0  0  0  0  0
    5.8826   -0.0579   19.8297 C   0  0  0  0  0  0  0  0  0  0  0  0
    6.3052   -0.3467   18.5568 C   0  0  0  0  0  0  0  0  0  0  0  0
    5.7637    0.1720   17.4275 N   0  0  0  0  0  0  0  0  0  0  0  0
    4.7620    1.0111   17.5700 C   0  0  0  0  0  0  0  0  0  0  0  0
    4.2049    1.3862   18.8268 C   0  0  0  0  0  0  0  0  0  0  0  0
    3.1194    2.3007   18.9428 C   0  0  0  0  0  0  0  0  0  0  0  0
    2.6080    2.6216   20.1712 C   0  0  0  0  0  0  0  0  0  0  0  0
    3.1478    2.0422   21.3426 C   0  0  0  0  0  0  0  0  0  0  0  0
    4.2093    1.1740   21.2589 C   0  0  0  0  0  0  0  0  0  0  0  0
    4.7702    0.8274   20.0009 C   0  0  0  0  0  0  0  0  0  0  0  0
    7.5487   -0.0278   21.6184 C   0  0  0  0  0  0  0  0  0  0  0  0
    8.0319    1.0264   21.2776 O   0  0  0  0  0  0  0  0  0  0  0  0
    7.9269   -0.9071   22.8414 C   0  0  1  0  0  0  0  0  0  0  0  0
    7.2182   -0.3780   24.1174 C   0  0  0  0  0  0  0  0  0  0  0  0
    7.6992    0.9348   24.5044 N   0  0  0  0  0  0  0  0  0  0  0  0
    6.7754    1.8306   25.1645 C   0  0  0  0  0  0  0  0  0  0  0  0
    6.1114    2.8094   24.2384 C   0  0  0  0  0  0  0  0  0  0  0  0
    4.9066    3.4855   24.4428 C   0  0  0  0  0  0  0  0  0  0  0  0
    4.6792    4.2898   23.4045 N   0  0  0  0  0  0  0  0  0  0  0  0
    5.7200    4.0826   22.6263 N   0  0  0  0  0  0  0  0  0  0  0  0
    5.8364    4.6667   21.3104 C   0  0  0  0  0  0  0  0  0  0  0  0
    6.5987    3.1968   23.0594 N   0  0  0  0  0  0  0  0  0  0  0  0
    9.0200    1.2849   24.4363 C   0  0  0  0  0  0  0  0  0  0  0  0
    9.4286    2.3566   24.8604 O   0  0  0  0  0  0  0  0  0  0  0  0
    9.9280    0.2563   23.8208 C   0  0  0  0  0  0  0  0  0  0  0  0
   11.3049    0.4304   23.9702 C   0  0  0  0  0  0  0  0  0  0  0  0
   12.1976   -0.4774   23.4326 C   0  0  0  0  0  0  0  0  0  0  0  0
   11.6723   -1.5699   22.7477 C   0  0  0  0  0  0  0  0  0  0  0  0
   12.5215   -2.4597   22.2050 F   0  0  0  0  0  0  0  0  0  0  0  0
   10.3164   -1.7727   22.5801 C   0  0  0  0  0  0  0  0  0  0  0  0
    9.4149   -0.8442   23.1121 C   0  0  0  0  0  0  0  0  0  0  0  0
    6.2474   -2.9447   24.1455 H   0  0  0  0  0  0  0  0  0  0  0  0
    7.9369   -3.4307   24.1549 H   0  0  0  0  0  0  0  0  0  0  0  0
    6.7857   -4.2641   23.1026 H   0  0  0  0  0  0  0  0  0  0  0  0
    8.0836   -2.7271   21.7174 H   0  0  0  0  0  0  0  0  0  0  0  0
    5.9404   -2.6716   20.7542 H   0  0  0  0  0  0  0  0  0  0  0  0
    5.2279   -1.8518   22.1531 H   0  0  0  0  0  0  0  0  0  0  0  0
    7.1384   -1.0288   18.4067 H   0  0  0  0  0  0  0  0  0  0  0  0
    4.3344    1.4363   16.6606 H   0  0  0  0  0  0  0  0  0  0  0  0
    2.7099    2.7423   18.0360 H   0  0  0  0  0  0  0  0  0  0  0  0
    1.7839    3.3282   20.2544 H   0  0  0  0  0  0  0  0  0  0  0  0
    2.7326    2.2964   22.3131 H   0  0  0  0  0  0  0  0  0  0  0  0
    4.6346    0.7276   22.1553 H   0  0  0  0  0  0  0  0  0  0  0  0
    6.1407   -0.3049   23.9323 H   0  0  0  0  0  0  0  0  0  0  0  0
    7.3744   -1.0813   24.9495 H   0  0  0  0  0  0  0  0  0  0  0  0
    6.0055    1.2303   25.6645 H   0  0  0  0  0  0  0  0  0  0  0  0
    7.3222    2.3518   25.9562 H   0  0  0  0  0  0  0  0  0  0  0  0
    4.2239    3.4118   25.2739 H   0  0  0  0  0  0  0  0  0  0  0  0
    6.8751    4.9479   21.1416 H   0  0  0  0  0  0  0  0  0  0  0  0
    5.4959    3.9539   20.5532 H   0  0  0  0  0  0  0  0  0  0  0  0
    5.2068    5.5506   21.2815 H   0  0  0  0  0  0  0  0  0  0  0  0
   11.6608    1.2944   24.5197 H   0  0  0  0  0  0  0  0  0  0  0  0
   13.2754   -0.3563   23.5170 H   0  0  0  0  0  0  0  0  0  0  0  0
    9.9834   -2.6543   22.0404 H   0  0  0  0  0  0  0  0  0  0  0  0
  1  2  1  0
  2  3  1  0
  3  4  1  0
  4  5  1  0
  5  6  2  0
  6  7  1  0
  7  8  2  0
  8  9  1  0
  9 10  2  0
 10 11  1  0
 11 12  2  0
 12 13  1  0
 13 14  2  0
  4 15  1  0
 15 16  2  0
 15 17  1  0
 17 18  1  1
 18 19  1  0
 19 20  1  0
 20 21  1  0
 21 22  1  0
 22 23  2  0
 23 24  1  0
 24 25  1  0
 24 26  1  0
 19 27  1  0
 27 28  2  0
 27 29  1  0
 29 30  2  0
 30 31  1  0
 31 32  2  0
 32 33  1  0
 32 34  1  0
 34 35  2  0
 17  2  1  0
 26 21  2  0
 35 29  1  0
 14  5  1  0
 35 17  1  0
 14  9  1  0
  1 36  1  0
  1 37  1  0
  1 38  1  0
  2 39  1  6
  3 40  1  0
  3 41  1  0
  6 42  1  0
  8 43  1  0
 10 44  1  0
 11 45  1  0
 12 46  1  0
 13 47  1  0
 18 48  1  0
 18 49  1  0
 20 50  1  0
 20 51  1  0
 22 52  1  0
 25 53  1  0
 25 54  1  0
 25 55  1  0
 30 56  1  0
 31 57  1  0
 34 58  1  0
M  END
>  <RMSD>  (11) 
0.1730562309261895

$$$$

     RDKit          3D

 56 60  0  0  0  0  0  0  0  0999 V2000
    6.1132    4.2694   22.3564 C   0  0  0  0  0  0  0  0  0  0  0  0
    6.7087    3.2584   23.2009 N   0  0  0  0  0  0  0  0  0  0  0  0
    6.2142    3.0259   24.4349 C   0  0  0  0  0  0  0  0  0  0  0  0
    5.3358    3.7045   24.9482 O   0  0  0  0  0  0  0  0  0  0  0  0
    6.7722    1.8207   25.2004 C   0  0  0  0  0  0  0  0  0  0  0  0
    7.6703    0.9406   24.4799 N   0  0  0  0  0  0  0  0  0  0  0  0
    7.2039   -0.3845   24.1137 C   0  0  0  0  0  0  0  0  0  0  0  0
    7.9204   -0.9149   22.8449 C   0  0  2  0  0  0  0  0  0  0  0  0
    7.5393   -0.0280   21.6324 C   0  0  0  0  0  0  0  0  0  0  0  0
    8.0062    1.0528   21.3289 O   0  0  0  0  0  0  0  0  0  0  0  0
    6.5333   -0.6640   20.9380 N   0  0  0  0  0  0  0  0  0  0  0  0
    5.8831   -0.0576   19.8297 C   0  0  0  0  0  0  0  0  0  0  0  0
    6.3055   -0.3464   18.5575 C   0  0  0  0  0  0  0  0  0  0  0  0
    5.7657    0.1750   17.4269 N   0  0  0  0  0  0  0  0  0  0  0  0
    4.7633    1.0127   17.5669 C   0  0  0  0  0  0  0  0  0  0  0  0
    4.2014    1.3820   18.8249 C   0  0  0  0  0  0  0  0  0  0  0  0
    3.1163    2.2967   18.9381 C   0  0  0  0  0  0  0  0  0  0  0  0
    2.6066    2.6164   20.1686 C   0  0  0  0  0  0  0  0  0  0  0  0
    3.1453    2.0385   21.3424 C   0  0  0  0  0  0  0  0  0  0  0  0
    4.2027    1.1665   21.2601 C   0  0  0  0  0  0  0  0  0  0  0  0
    4.7662    0.8219   19.9989 C   0  0  0  0  0  0  0  0  0  0  0  0
    6.1352   -1.9303   21.5282 C   0  0  0  0  0  0  0  0  0  0  0  0
    7.3487   -2.2880   22.3963 C   0  0  2  0  0  0  0  0  0  0  0  0
    7.0586   -3.2933   23.5028 C   0  0  0  0  0  0  0  0  0  0  0  0
    9.4073   -0.8517   23.1159 C   0  0  0  0  0  0  0  0  0  0  0  0
   10.3103   -1.7794   22.5856 C   0  0  0  0  0  0  0  0  0  0  0  0
   11.6649   -1.5757   22.7572 C   0  0  0  0  0  0  0  0  0  0  0  0
   12.5148   -2.4646   22.2147 F   0  0  0  0  0  0  0  0  0  0  0  0
   12.1872   -0.4841   23.4450 C   0  0  0  0  0  0  0  0  0  0  0  0
   11.2929    0.4223   23.9845 C   0  0  0  0  0  0  0  0  0  0  0  0
    9.9153    0.2457   23.8333 C   0  0  0  0  0  0  0  0  0  0  0  0
    8.9982    1.2671   24.4449 C   0  0  0  0  0  0  0  0  0  0  0  0
    9.3974    2.3433   24.8693 O   0  0  0  0  0  0  0  0  0  0  0  0
    6.6665    4.2960   21.4162 H   0  0  0  0  0  0  0  0  0  0  0  0
    6.1382    5.2591   22.8237 H   0  0  0  0  0  0  0  0  0  0  0  0
    5.0697    4.0204   22.1354 H   0  0  0  0  0  0  0  0  0  0  0  0
    7.5443    2.7913   22.8753 H   0  0  0  0  0  0  0  0  0  0  0  0
    5.9042    1.2398   25.5278 H   0  0  0  0  0  0  0  0  0  0  0  0
    7.2621    2.1914   26.1078 H   0  0  0  0  0  0  0  0  0  0  0  0
    7.3646   -1.0823   24.9488 H   0  0  0  0  0  0  0  0  0  0  0  0
    6.1275   -0.3222   23.9254 H   0  0  0  0  0  0  0  0  0  0  0  0
    7.1399   -1.0274   18.4065 H   0  0  0  0  0  0  0  0  0  0  0  0
    4.3390    1.4416   16.6572 H   0  0  0  0  0  0  0  0  0  0  0  0
    2.7094    2.7445   18.0325 H   0  0  0  0  0  0  0  0  0  0  0  0
    1.7862    3.3241   20.2610 H   0  0  0  0  0  0  0  0  0  0  0  0
    2.7491    2.3123   22.3190 H   0  0  0  0  0  0  0  0  0  0  0  0
    4.6240    0.7309   22.1631 H   0  0  0  0  0  0  0  0  0  0  0  0
    5.9404   -2.6712   20.7497 H   0  0  0  0  0  0  0  0  0  0  0  0
    5.2247   -1.8561   22.1488 H   0  0  0  0  0  0  0  0  0  0  0  0
    8.0780   -2.7328   21.7159 H   0  0  0  0  0  0  0  0  0  0  0  0
    7.9266   -3.4400   24.1535 H   0  0  0  0  0  0  0  0  0  0  0  0
    6.7783   -4.2701   23.0969 H   0  0  0  0  0  0  0  0  0  0  0  0
    6.2375   -2.9539   24.1404 H   0  0  0  0  0  0  0  0  0  0  0  0
    9.9779   -2.6596   22.0440 H   0  0  0  0  0  0  0  0  0  0  0  0
   13.2647   -0.3633   23.5323 H   0  0  0  0  0  0  0  0  0  0  0  0
   11.6522    1.2838   24.5364 H   0  0  0  0  0  0  0  0  0  0  0  0
  1  2  1  0
  2  3  1  0
  3  4  2  0
  3  5  1  0
  5  6  1  0
  6  7  1  0
  8  7  1  1
  8  9  1  0
  9 10  2  0
  9 11  1  0
 11 12  1  0
 12 13  2  0
 13 14  1  0
 14 15  2  0
 15 16  1  0
 16 17  2  0
 17 18  1  0
 18 19  2  0
 19 20  1  0
 20 21  2  0
 11 22  1  0
 22 23  1  0
 23 24  1  0
  8 25  1  0
 25 26  2  0
 26 27  1  0
 27 28  1  0
 27 29  2  0
 29 30  1  0
 30 31  2  0
 31 32  1  0
 32 33  2  0
 32  6  1  0
 23  8  1  0
 31 25  1  0
 21 12  1  0
 21 16  1  0
  1 34  1  0
  1 35  1  0
  1 36  1  0
  2 37  1  0
  5 38  1  0
  5 39  1  0
  7 40  1  0
  7 41  1  0
 13 42  1  0
 15 43  1  0
 17 44  1  0
 18 45  1  0
 19 46  1  0
 20 47  1  0
 22 48  1  0
 22 49  1  0
 23 50  1  6
 24 51  1  0
 24 52  1  0
 24 53  1  0
 26 54  1  0
 29 55  1  0
 30 56  1  0
M  END
>  <RMSD>  (12) 
0.17262060827131823

$$$$

     RDKit          3D

 54 57  0  0  0  0  0  0  0  0999 V2000
    4.6642   -2.8516   25.4481 C   0  0  0  0  0  0  0  0  0  0  0  0
    5.2543   -2.0502   24.4339 O   0  0  0  0  0  0  0  0  0  0  0  0
    5.0672   -0.6947   24.5095 C   0  0  0  0  0  0  0  0  0  0  0  0
    3.8500   -0.1691   24.9371 C   0  0  0  0  0  0  0  0  0  0  0  0
    3.6476    1.2035   24.9525 C   0  0  0  0  0  0  0  0  0  0  0  0
    4.6611    2.0547   24.5274 C   0  0  0  0  0  0  0  0  0  0  0  0
    5.8874    1.5197   24.1309 C   0  0  0  0  0  0  0  0  0  0  0  0
    6.1356    0.1464   24.1398 C   0  0  0  0  0  0  0  0  0  0  0  0
    7.5528   -0.4380   24.0314 C   0  0  2  0  0  0  0  0  0  0  0  0
    8.5269    0.4265   24.8580 C   0  0  0  0  0  0  0  0  0  0  0  0
    9.3104    1.3876   23.9596 C   0  0  1  0  0  0  0  0  0  0  0  0
    9.9936    2.4229   24.8221 C   0  0  0  0  0  0  0  0  0  0  0  0
   10.3011    0.5148   23.1818 C   0  0  0  0  0  0  0  0  0  0  0  0
    9.6256   -0.8169   22.8278 C   0  0  0  0  0  0  0  0  0  0  0  0
    8.1734   -0.6385   22.7030 N   0  0  0  0  0  0  0  0  0  0  0  0
    7.7165   -0.3815   21.4188 C   0  0  0  0  0  0  0  0  0  0  0  0
    8.4476    0.1331   20.5914 O   0  0  0  0  0  0  0  0  0  0  0  0
    6.3536   -0.9428   20.9985 C   0  0  0  0  0  0  0  0  0  0  0  0
    5.7507   -0.2044   19.8365 C   0  0  0  0  0  0  0  0  0  0  0  0
    6.2313   -0.4259   18.5687 C   0  0  0  0  0  0  0  0  0  0  0  0
    5.7531    0.1459   17.4324 N   0  0  0  0  0  0  0  0  0  0  0  0
    4.7732    1.0119   17.5735 C   0  0  0  0  0  0  0  0  0  0  0  0
    4.2050    1.3739   18.8287 C   0  0  0  0  0  0  0  0  0  0  0  0
    3.1592    2.3263   18.9514 C   0  0  0  0  0  0  0  0  0  0  0  0
    2.6367    2.6407   20.1759 C   0  0  0  0  0  0  0  0  0  0  0  0
    3.1261    2.0072   21.3404 C   0  0  0  0  0  0  0  0  0  0  0  0
    4.1259    1.0751   21.2492 C   0  0  0  0  0  0  0  0  0  0  0  0
    4.6983    0.7386   19.9946 C   0  0  0  0  0  0  0  0  0  0  0  0
    5.2266   -3.7869   25.4518 H   0  0  0  0  0  0  0  0  0  0  0  0
    4.7781   -2.3958   26.4396 H   0  0  0  0  0  0  0  0  0  0  0  0
    3.5971   -3.0613   25.2657 H   0  0  0  0  0  0  0  0  0  0  0  0
    3.0677   -0.8430   25.2685 H   0  0  0  0  0  0  0  0  0  0  0  0
    2.6988    1.5958   25.3073 H   0  0  0  0  0  0  0  0  0  0  0  0
    4.5104    3.1317   24.5270 H   0  0  0  0  0  0  0  0  0  0  0  0
    6.6787    2.2162   23.8613 H   0  0  0  0  0  0  0  0  0  0  0  0
    7.5000   -1.4210   24.5092 H   0  0  0  0  0  0  0  0  0  0  0  0
    9.2447   -0.2196   25.3867 H   0  0  0  0  0  0  0  0  0  0  0  0
    7.9886    0.9737   25.6353 H   0  0  0  0  0  0  0  0  0  0  0  0
    8.6314    1.8761   23.2502 H   0  0  0  0  0  0  0  0  0  0  0  0
   10.6842    3.0819   24.2760 H   0  0  0  0  0  0  0  0  0  0  0  0
    9.2718    3.0581   25.3551 H   0  0  0  0  0  0  0  0  0  0  0  0
   10.5139    1.7922   25.5487 H   0  0  0  0  0  0  0  0  0  0  0  0
   11.2059    0.3314   23.7816 H   0  0  0  0  0  0  0  0  0  0  0  0
   10.6106    1.0317   22.2723 H   0  0  0  0  0  0  0  0  0  0  0  0
    9.7943   -1.5677   23.6134 H   0  0  0  0  0  0  0  0  0  0  0  0
   10.0170   -1.2201   21.8928 H   0  0  0  0  0  0  0  0  0  0  0  0
    5.6980   -1.0372   21.8665 H   0  0  0  0  0  0  0  0  0  0  0  0
    6.5649   -1.9731   20.6604 H   0  0  0  0  0  0  0  0  0  0  0  0
    7.0776   -1.0966   18.4212 H   0  0  0  0  0  0  0  0  0  0  0  0
    4.3776    1.4657   16.6627 H   0  0  0  0  0  0  0  0  0  0  0  0
    2.7744    2.7910   18.0465 H   0  0  0  0  0  0  0  0  0  0  0  0
    1.8514    3.3866   20.2655 H   0  0  0  0  0  0  0  0  0  0  0  0
    2.7370    2.2672   22.3229 H   0  0  0  0  0  0  0  0  0  0  0  0
    4.5062    0.6260   22.1581 H   0  0  0  0  0  0  0  0  0  0  0  0
  1  2  1  0
  2  3  1  0
  3  4  2  0
  4  5  1  0
  5  6  2  0
  6  7  1  0
  7  8  2  0
  8  9  1  0
  9 10  1  0
 10 11  1  0
 11 12  1  0
 11 13  1  0
 13 14  1  0
 14 15  1  0
 15 16  1  0
 16 17  2  0
 16 18  1  0
 18 19  1  0
 19 20  2  0
 20 21  1  0
 21 22  2  0
 22 23  1  0
 23 24  2  0
 24 25  1  0
 25 26  2  0
 26 27  1  0
 27 28  2  0
  8  3  1  0
 15  9  1  0
 28 19  1  0
 28 23  1  0
  1 29  1  0
  1 30  1  0
  1 31  1  0
  4 32  1  0
  5 33  1  0
  6 34  1  0
  7 35  1  0
  9 36  1  1
 10 37  1  0
 10 38  1  0
 11 39  1  6
 12 40  1  0
 12 41  1  0
 12 42  1  0
 13 43  1  0
 13 44  1  0
 14 45  1  0
 14 46  1  0
 18 47  1  0
 18 48  1  0
 20 49  1  0
 22 50  1  0
 24 51  1  0
 25 52  1  0
 26 53  1  0
 27 54  1  0
M  END
>  <RMSD>  (13) 
0.054546703845019646

$$$$

     RDKit          3D

 43 47  0  0  0  0  0  0  0  0999 V2000
    8.3657    1.7811   19.6498 O   0  0  0  0  0  0  0  0  0  0  0  0
    8.2705    0.8479   20.4108 C   0  0  0  0  0  0  0  0  0  0  0  0
    9.1012    0.4897   21.4372 N   0  0  0  0  0  0  0  0  0  0  0  0
    8.7469   -0.7477   22.0787 C   0  0  2  0  0  0  0  0  0  0  0  0
    8.6637   -0.7807   23.6140 C   0  0  0  0  0  0  0  0  0  0  0  0
    9.5809   -2.0256   23.6360 C   0  0  2  0  0  0  0  0  0  0  0  0
   10.7762   -2.0427   24.5495 C   0  0  0  0  0  0  0  0  0  0  0  0
   10.9087   -3.1240   25.4233 C   0  0  0  0  0  0  0  0  0  0  0  0
   11.9690   -3.2412   26.3077 C   0  0  0  0  0  0  0  0  0  0  0  0
   12.9455   -2.2559   26.3399 C   0  0  0  0  0  0  0  0  0  0  0  0
   12.8515   -1.1663   25.4874 C   0  0  0  0  0  0  0  0  0  0  0  0
   11.7808   -1.0654   24.6060 C   0  0  0  0  0  0  0  0  0  0  0  0
   11.7837    0.3533   23.5870 Cl  0  0  0  0  0  0  0  0  0  0  0  0
    9.8001   -1.8661   22.1146 C   0  0  0  0  0  0  0  0  0  0  0  0
    7.4621   -1.1122   21.3643 C   0  0  0  0  0  0  0  0  0  0  0  0
    6.7707   -2.0817   21.5477 O   0  0  0  0  0  0  0  0  0  0  0  0
    7.2278   -0.0948   20.4334 N   0  0  0  0  0  0  0  0  0  0  0  0
    6.0670    0.0787   19.6276 C   0  0  0  0  0  0  0  0  0  0  0  0
    5.9983   -0.4884   18.3839 C   0  0  0  0  0  0  0  0  0  0  0  0
    5.0198   -0.2369   17.4741 N   0  0  0  0  0  0  0  0  0  0  0  0
    4.0739    0.6091   17.8067 C   0  0  0  0  0  0  0  0  0  0  0  0
    3.9887    1.2306   19.0847 C   0  0  0  0  0  0  0  0  0  0  0  0
    2.9454    2.1394   19.4190 C   0  0  0  0  0  0  0  0  0  0  0  0
    2.8934    2.6983   20.6653 C   0  0  0  0  0  0  0  0  0  0  0  0
    3.8761    2.3812   21.6312 C   0  0  0  0  0  0  0  0  0  0  0  0
    4.8996    1.5195   21.3294 C   0  0  0  0  0  0  0  0  0  0  0  0
    4.9941    0.9346   20.0389 C   0  0  0  0  0  0  0  0  0  0  0  0
    9.9882    0.9397   21.5919 H   0  0  0  0  0  0  0  0  0  0  0  0
    9.0925    0.1007   24.0804 H   0  0  0  0  0  0  0  0  0  0  0  0
    7.6575   -0.9381   23.9970 H   0  0  0  0  0  0  0  0  0  0  0  0
    8.9666   -2.9098   23.8200 H   0  0  0  0  0  0  0  0  0  0  0  0
   10.1452   -3.8960   25.4049 H   0  0  0  0  0  0  0  0  0  0  0  0
   12.0299   -4.0980   26.9705 H   0  0  0  0  0  0  0  0  0  0  0  0
   13.7784   -2.3324   27.0289 H   0  0  0  0  0  0  0  0  0  0  0  0
   13.6110   -0.3907   25.5039 H   0  0  0  0  0  0  0  0  0  0  0  0
    9.4960   -2.7020   21.4981 H   0  0  0  0  0  0  0  0  0  0  0  0
   10.8039   -1.5583   21.8310 H   0  0  0  0  0  0  0  0  0  0  0  0
    6.7703   -1.1783   18.0540 H   0  0  0  0  0  0  0  0  0  0  0  0
    3.3071    0.8377   17.0589 H   0  0  0  0  0  0  0  0  0  0  0  0
    2.1944    2.3876   18.6685 H   0  0  0  0  0  0  0  0  0  0  0  0
    2.0970    3.3907   20.9275 H   0  0  0  0  0  0  0  0  0  0  0  0
    3.8222    2.8268   22.6199 H   0  0  0  0  0  0  0  0  0  0  0  0
    5.6584    1.2816   22.0699 H   0  0  0  0  0  0  0  0  0  0  0  0
  1  2  2  0
  2  3  1  0
  4  3  1  1
  4  5  1  0
  5  6  1  0
  6  7  1  0
  7  8  2  0
  8  9  1  0
  9 10  2  0
 10 11  1  0
 11 12  2  0
 12 13  1  0
  6 14  1  0
  4 15  1  0
 15 16  2  0
 15 17  1  0
 17 18  1  0
 18 19  2  0
 19 20  1  0
 20 21  2  0
 21 22  1  0
 22 23  2  0
 23 24  1  0
 24 25  2  0
 25 26  1  0
 26 27  2  0
 17  2  1  0
 27 18  1  0
 14  4  1  0
 27 22  1  0
 12  7  1  0
  3 28  1  0
  5 29  1  0
  5 30  1  0
  6 31  1  6
  8 32  1  0
  9 33  1  0
 10 34  1  0
 11 35  1  0
 14 36  1  0
 14 37  1  0
 19 38  1  0
 21 39  1  0
 23 40  1  0
 24 41  1  0
 25 42  1  0
 26 43  1  0
M  END
>  <RMSD>  (14) 
1.2193728400503236

$$$$

     RDKit          3D

 60 65  0  0  0  0  0  0  0  0999 V2000
    6.6044   -5.5359   23.8839 C   0  0  0  0  0  0  0  0  0  0  0  0
    6.8537   -4.5701   22.8958 O   0  0  0  0  0  0  0  0  0  0  0  0
    7.1667   -3.3189   23.4543 C   0  0  0  0  0  0  0  0  0  0  0  0
    7.3978   -2.3312   22.3236 C   0  0  1  0  0  0  0  0  0  0  0  0
    6.1277   -1.9709   21.5240 C   0  0  0  0  0  0  0  0  0  0  0  0
    6.4996   -0.6934   20.9317 N   0  0  0  0  0  0  0  0  0  0  0  0
    5.8585   -0.0886   19.8212 C   0  0  0  0  0  0  0  0  0  0  0  0
    6.3153   -0.3354   18.5517 C   0  0  0  0  0  0  0  0  0  0  0  0
    5.7795    0.1991   17.4244 N   0  0  0  0  0  0  0  0  0  0  0  0
    4.7622    1.0148   17.5733 C   0  0  0  0  0  0  0  0  0  0  0  0
    4.1897    1.3645   18.8308 C   0  0  0  0  0  0  0  0  0  0  0  0
    3.1075    2.2790   18.9436 C   0  0  0  0  0  0  0  0  0  0  0  0
    2.6043    2.6147   20.1695 C   0  0  0  0  0  0  0  0  0  0  0  0
    3.1575    2.0537   21.3425 C   0  0  0  0  0  0  0  0  0  0  0  0
    4.2004    1.1623   21.2602 C   0  0  0  0  0  0  0  0  0  0  0  0
    4.7469    0.7980   20.0005 C   0  0  0  0  0  0  0  0  0  0  0  0
    7.6570   -0.1513   21.4583 C   0  0  0  0  0  0  0  0  0  0  0  0
    8.2618    0.7829   20.9728 O   0  0  0  0  0  0  0  0  0  0  0  0
    8.0084   -0.9599   22.7335 C   0  0  1  0  0  0  0  0  0  0  0  0
    7.2770   -0.3874   23.9841 C   0  0  0  0  0  0  0  0  0  0  0  0
    7.8563    0.8534   24.4522 N   0  0  0  0  0  0  0  0  0  0  0  0
    7.0559    2.0390   24.7258 C   0  0  0  0  0  0  0  0  0  0  0  0
    7.2256    3.0967   23.6784 C   0  0  0  0  0  0  0  0  0  0  0  0
    6.3395    3.3370   22.7358 N   0  0  0  0  0  0  0  0  0  0  0  0
    6.8796    4.3634   22.0029 C   0  0  0  0  0  0  0  0  0  0  0  0
    8.0713    4.7746   22.5378 C   0  0  0  0  0  0  0  0  0  0  0  0
    8.2950    3.9308   23.5924 N   0  0  0  0  0  0  0  0  0  0  0  0
    9.1988    0.9604   24.6445 C   0  0  0  0  0  0  0  0  0  0  0  0
    9.6828    1.9077   25.2647 O   0  0  0  0  0  0  0  0  0  0  0  0
   10.0428   -0.0785   23.9761 C   0  0  0  0  0  0  0  0  0  0  0  0
   11.4172   -0.0566   24.2176 C   0  0  0  0  0  0  0  0  0  0  0  0
   12.2782   -0.8035   23.4356 C   0  0  0  0  0  0  0  0  0  0  0  0
   11.7381   -1.5850   22.4129 C   0  0  0  0  0  0  0  0  0  0  0  0
   12.8108   -2.4520   21.3535 Cl  0  0  0  0  0  0  0  0  0  0  0  0
   10.3741   -1.6652   22.1996 C   0  0  0  0  0  0  0  0  0  0  0  0
    9.4950   -0.9369   23.0103 C   0  0  0  0  0  0  0  0  0  0  0  0
    6.3501   -6.4684   23.3752 H   0  0  0  0  0  0  0  0  0  0  0  0
    5.7635   -5.2444   24.5335 H   0  0  0  0  0  0  0  0  0  0  0  0
    7.4865   -5.7059   24.5222 H   0  0  0  0  0  0  0  0  0  0  0  0
    6.3383   -2.9739   24.0999 H   0  0  0  0  0  0  0  0  0  0  0  0
    8.0672   -3.3871   24.0906 H   0  0  0  0  0  0  0  0  0  0  0  0
    8.0874   -2.8054   21.6208 H   0  0  0  0  0  0  0  0  0  0  0  0
    5.8809   -2.7084   20.7530 H   0  0  0  0  0  0  0  0  0  0  0  0
    5.2498   -1.8779   22.1834 H   0  0  0  0  0  0  0  0  0  0  0  0
    7.1678   -0.9959   18.4054 H   0  0  0  0  0  0  0  0  0  0  0  0
    4.3431    1.4523   16.6661 H   0  0  0  0  0  0  0  0  0  0  0  0
    2.7113    2.7208   18.0324 H   0  0  0  0  0  0  0  0  0  0  0  0
    1.7880    3.3285   20.2538 H   0  0  0  0  0  0  0  0  0  0  0  0
    2.7677    2.3388   22.3160 H   0  0  0  0  0  0  0  0  0  0  0  0
    4.6374    0.7546   22.1681 H   0  0  0  0  0  0  0  0  0  0  0  0
    6.2255   -0.2039   23.7497 H   0  0  0  0  0  0  0  0  0  0  0  0
    7.3259   -1.1252   24.7961 H   0  0  0  0  0  0  0  0  0  0  0  0
    7.3474    2.4182   25.7100 H   0  0  0  0  0  0  0  0  0  0  0  0
    6.0003    1.7623   24.7494 H   0  0  0  0  0  0  0  0  0  0  0  0
    6.3717    4.7135   21.1214 H   0  0  0  0  0  0  0  0  0  0  0  0
    8.8329    5.4681   22.1989 H   0  0  0  0  0  0  0  0  0  0  0  0
    9.0619    3.9693   24.2480 H   0  0  0  0  0  0  0  0  0  0  0  0
   11.7917    0.5842   25.0097 H   0  0  0  0  0  0  0  0  0  0  0  0
   13.3544   -0.7465   23.5690 H   0  0  0  0  0  0  0  0  0  0  0  0
   10.0027   -2.2686   21.3785 H   0  0  0  0  0  0  0  0  0  0  0  0
  1  2  1  0
  2  3  1  0
  3  4  1  0
  4  5  1  0
  5  6  1  0
  6  7  1  0
  7  8  2  0
  8  9  1  0
  9 10  2  0
 10 11  1  0
 11 12  2  0
 12 13  1  0
 13 14  2  0
 14 15  1  0
 15 16  2  0
  6 17  1  0
 17 18  2  0
 17 19  1  0
 19 20  1  1
 20 21  1  0
 21 22  1  0
 22 23  1  0
 23 24  2  0
 24 25  1  0
 25 26  2  0
 26 27  1  0
 21 28  1  0
 28 29  2  0
 28 30  1  0
 30 31  2  0
 31 32  1  0
 32 33  2  0
 33 34  1  0
 33 35  1  0
 35 36  2  0
 19  4  1  0
 27 23  1  0
 36 30  1  0
 16  7  1  0
 36 19  1  0
 16 11  1  0
  1 37  1  0
  1 38  1  0
  1 39  1  0
  3 40  1  0
  3 41  1  0
  4 42  1  6
  5 43  1  0
  5 44  1  0
  8 45  1  0
 10 46  1  0
 12 47  1  0
 13 48  1  0
 14 49  1  0
 15 50  1  0
 20 51  1  0
 20 52  1  0
 22 53  1  0
 22 54  1  0
 25 55  1  0
 26 56  1  0
 27 57  1  0
 31 58  1  0
 32 59  1  0
 35 60  1  0
M  END
>  <RMSD>  (15) 
0.187183594590026

$$$$

     RDKit          3D

 58 63  0  0  0  0  0  0  0  0999 V2000
    3.5329    5.0511   23.2551 C   0  0  0  0  0  0  0  0  0  0  0  0
    4.7270    4.1996   23.5110 C   0  0  0  0  0  0  0  0  0  0  0  0
    4.8445    3.2994   24.4346 N   0  0  0  0  0  0  0  0  0  0  0  0
    6.1457    2.8406   24.2948 C   0  0  0  0  0  0  0  0  0  0  0  0
    6.7601    1.8205   25.1913 C   0  0  0  0  0  0  0  0  0  0  0  0
    7.6833    0.9379   24.5054 N   0  0  0  0  0  0  0  0  0  0  0  0
    7.2099   -0.3784   24.1156 C   0  0  0  0  0  0  0  0  0  0  0  0
    7.9235   -0.9115   22.8450 C   0  0  2  0  0  0  0  0  0  0  0  0
    7.5417   -0.0240   21.6312 C   0  0  0  0  0  0  0  0  0  0  0  0
    8.0093    1.0520   21.3210 O   0  0  0  0  0  0  0  0  0  0  0  0
    6.5330   -0.6599   20.9402 N   0  0  0  0  0  0  0  0  0  0  0  0
    5.8829   -0.0578   19.8316 C   0  0  0  0  0  0  0  0  0  0  0  0
    6.3044   -0.3476   18.5586 C   0  0  0  0  0  0  0  0  0  0  0  0
    5.7654    0.1740   17.4283 N   0  0  0  0  0  0  0  0  0  0  0  0
    4.7622    1.0127   17.5661 C   0  0  0  0  0  0  0  0  0  0  0  0
    4.2013    1.3805   18.8244 C   0  0  0  0  0  0  0  0  0  0  0  0
    3.1172    2.2978   18.9373 C   0  0  0  0  0  0  0  0  0  0  0  0
    2.6111    2.6208   20.1689 C   0  0  0  0  0  0  0  0  0  0  0  0
    3.1498    2.0417   21.3419 C   0  0  0  0  0  0  0  0  0  0  0  0
    4.2058    1.1686   21.2614 C   0  0  0  0  0  0  0  0  0  0  0  0
    4.7631    0.8204   19.9991 C   0  0  0  0  0  0  0  0  0  0  0  0
    6.1388   -1.9251   21.5318 C   0  0  0  0  0  0  0  0  0  0  0  0
    7.3512   -2.2852   22.3978 C   0  0  2  0  0  0  0  0  0  0  0  0
    7.0631   -3.2854   23.5070 C   0  0  0  0  0  0  0  0  0  0  0  0
    9.4119   -0.8453   23.1163 C   0  0  0  0  0  0  0  0  0  0  0  0
   10.3129   -1.7733   22.5852 C   0  0  0  0  0  0  0  0  0  0  0  0
   11.6676   -1.5694   22.7547 C   0  0  0  0  0  0  0  0  0  0  0  0
   12.5146   -2.4593   22.2122 F   0  0  0  0  0  0  0  0  0  0  0  0
   12.1900   -0.4780   23.4393 C   0  0  0  0  0  0  0  0  0  0  0  0
   11.2990    0.4295   23.9787 C   0  0  0  0  0  0  0  0  0  0  0  0
    9.9204    0.2560   23.8280 C   0  0  0  0  0  0  0  0  0  0  0  0
    9.0043    1.2857   24.4370 C   0  0  0  0  0  0  0  0  0  0  0  0
    9.4150    2.3609   24.8516 O   0  0  0  0  0  0  0  0  0  0  0  0
    6.7416    3.4783   23.2691 C   0  0  0  0  0  0  0  0  0  0  0  0
    5.8398    4.3737   22.7611 O   0  0  0  0  0  0  0  0  0  0  0  0
    3.3677    5.2070   22.1889 H   0  0  0  0  0  0  0  0  0  0  0  0
    2.6636    4.5646   23.6969 H   0  0  0  0  0  0  0  0  0  0  0  0
    3.6394    6.0280   23.7325 H   0  0  0  0  0  0  0  0  0  0  0  0
    5.9688    1.2206   25.6479 H   0  0  0  0  0  0  0  0  0  0  0  0
    7.3027    2.3226   25.9984 H   0  0  0  0  0  0  0  0  0  0  0  0
    7.3702   -1.0721   24.9519 H   0  0  0  0  0  0  0  0  0  0  0  0
    6.1327   -0.3109   23.9313 H   0  0  0  0  0  0  0  0  0  0  0  0
    7.1400   -1.0274   18.4068 H   0  0  0  0  0  0  0  0  0  0  0  0
    4.3354    1.4417   16.6568 H   0  0  0  0  0  0  0  0  0  0  0  0
    2.7070    2.7461   18.0344 H   0  0  0  0  0  0  0  0  0  0  0  0
    1.7876    3.3276   20.2559 H   0  0  0  0  0  0  0  0  0  0  0  0
    2.7429    2.2985   22.3180 H   0  0  0  0  0  0  0  0  0  0  0  0
    4.6277    0.7302   22.1615 H   0  0  0  0  0  0  0  0  0  0  0  0
    5.9481   -2.6687   20.7560 H   0  0  0  0  0  0  0  0  0  0  0  0
    5.2307   -1.8520   22.1545 H   0  0  0  0  0  0  0  0  0  0  0  0
    8.0755   -2.7382   21.7163 H   0  0  0  0  0  0  0  0  0  0  0  0
    7.9306   -3.4321   24.1577 H   0  0  0  0  0  0  0  0  0  0  0  0
    6.2427   -2.9456   24.1428 H   0  0  0  0  0  0  0  0  0  0  0  0
    6.7822   -4.2613   23.1027 H   0  0  0  0  0  0  0  0  0  0  0  0
    9.9822   -2.6546   22.0454 H   0  0  0  0  0  0  0  0  0  0  0  0
   13.2672   -0.3561   23.5266 H   0  0  0  0  0  0  0  0  0  0  0  0
   11.6627    1.2890   24.5293 H   0  0  0  0  0  0  0  0  0  0  0  0
    7.7268    3.4202   22.8256 H   0  0  0  0  0  0  0  0  0  0  0  0
  1  2  1  0
  2  3  2  0
  3  4  1  0
  4  5  1  0
  5  6  1  0
  6  7  1  0
  8  7  1  1
  8  9  1  0
  9 10  2  0
  9 11  1  0
 11 12  1  0
 12 13  2  0
 13 14  1  0
 14 15  2  0
 15 16  1  0
 16 17  2  0
 17 18  1  0
 18 19  2  0
 19 20  1  0
 20 21  2  0
 11 22  1  0
 22 23  1  0
 23 24  1  0
  8 25  1  0
 25 26  2  0
 26 27  1  0
 27 28  1  0
 27 29  2  0
 29 30  1  0
 30 31  2  0
 31 32  1  0
 32 33  2  0
  4 34  2  0
 34 35  1  0
 35  2  1  0
 32  6  1  0
 23  8  1  0
 31 25  1  0
 21 12  1  0
 21 16  1  0
  1 36  1  0
  1 37  1  0
  1 38  1  0
  5 39  1  0
  5 40  1  0
  7 41  1  0
  7 42  1  0
 13 43  1  0
 15 44  1  0
 17 45  1  0
 18 46  1  0
 19 47  1  0
 20 48  1  0
 22 49  1  0
 22 50  1  0
 23 51  1  6
 24 52  1  0
 24 53  1  0
 24 54  1  0
 26 55  1  0
 29 56  1  0
 30 57  1  0
 34 58  1  0
M  END
>  <RMSD>  (16) 
0.17172301581135296

$$$$

     RDKit          3D

 44 47  0  0  0  0  0  0  0  0999 V2000
    7.9402    1.0086   21.0013 O   0  0  0  0  0  0  0  0  0  0  0  0
    7.5469    0.0161   21.5714 C   0  0  0  0  0  0  0  0  0  0  0  0
    6.4255   -0.8794   21.0082 C   0  0  0  0  0  0  0  0  0  0  0  0
    5.7529   -0.2212   19.8371 C   0  0  0  0  0  0  0  0  0  0  0  0
    6.2257   -0.4283   18.5713 C   0  0  0  0  0  0  0  0  0  0  0  0
    5.7555    0.1703   17.4488 N   0  0  0  0  0  0  0  0  0  0  0  0
    4.7730    1.0208   17.5857 C   0  0  0  0  0  0  0  0  0  0  0  0
    4.1939    1.3610   18.8363 C   0  0  0  0  0  0  0  0  0  0  0  0
    3.1466    2.3119   18.9465 C   0  0  0  0  0  0  0  0  0  0  0  0
    2.6275    2.6341   20.1706 C   0  0  0  0  0  0  0  0  0  0  0  0
    3.1367    2.0159   21.3385 C   0  0  0  0  0  0  0  0  0  0  0  0
    4.1469    1.0903   21.2567 C   0  0  0  0  0  0  0  0  0  0  0  0
    4.7040    0.7290   20.0026 C   0  0  0  0  0  0  0  0  0  0  0  0
    8.1262   -0.4053   22.8206 N   0  0  0  0  0  0  0  0  0  0  0  0
    9.5945   -0.5222   22.8686 C   0  0  0  0  0  0  0  0  0  0  0  0
   10.0953    0.5970   23.7728 C   0  0  0  0  0  0  0  0  0  0  0  0
    8.9948    0.6744   24.8307 C   0  0  0  0  0  0  0  0  0  0  0  0
    7.7042    0.3460   24.0426 C   0  0  2  0  0  0  0  0  0  0  0  0
    6.7178   -0.4729   24.8398 C   0  0  0  0  0  0  0  0  0  0  0  0
    5.5309    0.0888   25.3004 C   0  0  0  0  0  0  0  0  0  0  0  0
    4.6240   -0.6776   26.0206 C   0  0  0  0  0  0  0  0  0  0  0  0
    4.8847   -2.0104   26.3034 C   0  0  0  0  0  0  0  0  0  0  0  0
    6.0814   -2.5413   25.8527 C   0  0  0  0  0  0  0  0  0  0  0  0
    6.3502   -3.8300   26.1192 F   0  0  0  0  0  0  0  0  0  0  0  0
    7.0063   -1.8043   25.1357 C   0  0  0  0  0  0  0  0  0  0  0  0
    5.7200   -1.1685   21.7991 H   0  0  0  0  0  0  0  0  0  0  0  0
    6.8869   -1.8224   20.6825 H   0  0  0  0  0  0  0  0  0  0  0  0
    7.0542   -1.1166   18.3992 H   0  0  0  0  0  0  0  0  0  0  0  0
    4.3963    1.4913   16.6736 H   0  0  0  0  0  0  0  0  0  0  0  0
    2.7787    2.7888   18.0376 H   0  0  0  0  0  0  0  0  0  0  0  0
    1.8346    3.3740   20.2563 H   0  0  0  0  0  0  0  0  0  0  0  0
    2.7227    2.2822   22.3074 H   0  0  0  0  0  0  0  0  0  0  0  0
    4.5346    0.6256   22.1598 H   0  0  0  0  0  0  0  0  0  0  0  0
   10.0533   -0.5128   21.8737 H   0  0  0  0  0  0  0  0  0  0  0  0
    9.8334   -1.4898   23.3356 H   0  0  0  0  0  0  0  0  0  0  0  0
   10.1251    1.5303   23.1950 H   0  0  0  0  0  0  0  0  0  0  0  0
   11.0990    0.4076   24.1909 H   0  0  0  0  0  0  0  0  0  0  0  0
    8.9343    1.6530   25.3191 H   0  0  0  0  0  0  0  0  0  0  0  0
    9.1595   -0.0604   25.6273 H   0  0  0  0  0  0  0  0  0  0  0  0
    7.2213    1.2985   23.7752 H   0  0  0  0  0  0  0  0  0  0  0  0
    5.3200    1.1336   25.0849 H   0  0  0  0  0  0  0  0  0  0  0  0
    3.6969   -0.2312   26.3555 H   0  0  0  0  0  0  0  0  0  0  0  0
    4.1864   -2.6297   26.8571 H   0  0  0  0  0  0  0  0  0  0  0  0
    7.9288   -2.2825   24.8100 H   0  0  0  0  0  0  0  0  0  0  0  0
  1  2  2  0
  2  3  1  0
  3  4  1  0
  4  5  2  0
  5  6  1  0
  6  7  2  0
  7  8  1  0
  8  9  2  0
  9 10  1  0
 10 11  2  0
 11 12  1  0
 12 13  2  0
  2 14  1  0
 14 15  1  0
 15 16  1  0
 16 17  1  0
 17 18  1  0
 18 19  1  0
 19 20  2  0
 20 21  1  0
 21 22  2  0
 22 23  1  0
 23 24  1  0
 23 25  2  0
 13  4  1  0
 18 14  1  0
 25 19  1  0
 13  8  1  0
  3 26  1  0
  3 27  1  0
  5 28  1  0
  7 29  1  0
  9 30  1  0
 10 31  1  0
 11 32  1  0
 12 33  1  0
 15 34  1  0
 15 35  1  0
 16 36  1  0
 16 37  1  0
 17 38  1  0
 17 39  1  0
 18 40  1  6
 20 41  1  0
 21 42  1  0
 22 43  1  0
 25 44  1  0
M  END
>  <RMSD>  (17) 
0.04839069115750972

$$$$

     RDKit          3D

 60 64  0  0  0  0  0  0  0  0999 V2000
    6.1132    4.2700   22.3559 C   0  0  0  0  0  0  0  0  0  0  0  0
    6.7091    3.2594   23.2001 N   0  0  0  0  0  0  0  0  0  0  0  0
    6.2150    3.0268   24.4341 C   0  0  0  0  0  0  0  0  0  0  0  0
    5.3359    3.7049   24.9474 O   0  0  0  0  0  0  0  0  0  0  0  0
    6.7734    1.8224   25.1997 C   0  0  0  0  0  0  0  0  0  0  0  0
    7.6722    0.9426   24.4810 N   0  0  0  0  0  0  0  0  0  0  0  0
    7.2071   -0.3844   24.1151 C   0  0  0  0  0  0  0  0  0  0  0  0
    7.9228   -0.9157   22.8472 C   0  0  2  0  0  0  0  0  0  0  0  0
    7.5391   -0.0311   21.6338 C   0  0  0  0  0  0  0  0  0  0  0  0
    8.0047    1.0499   21.3284 O   0  0  0  0  0  0  0  0  0  0  0  0
    6.5336   -0.6671   20.9389 N   0  0  0  0  0  0  0  0  0  0  0  0
    5.8839   -0.0578   19.8304 C   0  0  0  0  0  0  0  0  0  0  0  0
    6.3058   -0.3458   18.5579 C   0  0  0  0  0  0  0  0  0  0  0  0
    5.7656    0.1753   17.4271 N   0  0  0  0  0  0  0  0  0  0  0  0
    4.7631    1.0130   17.5668 C   0  0  0  0  0  0  0  0  0  0  0  0
    4.2013    1.3821   18.8249 C   0  0  0  0  0  0  0  0  0  0  0  0
    3.1158    2.2967   18.9379 C   0  0  0  0  0  0  0  0  0  0  0  0
    2.6059    2.6165   20.1685 C   0  0  0  0  0  0  0  0  0  0  0  0
    3.1448    2.0387   21.3424 C   0  0  0  0  0  0  0  0  0  0  0  0
    4.2028    1.1670   21.2600 C   0  0  0  0  0  0  0  0  0  0  0  0
    4.7669    0.8224   19.9992 C   0  0  0  0  0  0  0  0  0  0  0  0
    6.1373   -1.9333   21.5301 C   0  0  0  0  0  0  0  0  0  0  0  0
    7.3542   -2.2895   22.3971 C   0  0  2  0  0  0  0  0  0  0  0  0
    7.0417   -3.3022   23.4864 C   0  0  0  0  0  0  0  0  0  0  0  0
    8.1863   -3.5481   24.2702 O   0  0  0  0  0  0  0  0  0  0  0  0
    7.8997   -4.4194   25.3381 C   0  0  0  0  0  0  0  0  0  0  0  0
    9.4100   -0.8475   23.1182 C   0  0  0  0  0  0  0  0  0  0  0  0
   10.3147   -1.7685   22.5771 C   0  0  0  0  0  0  0  0  0  0  0  0
   11.6756   -1.5768   22.7362 C   0  0  0  0  0  0  0  0  0  0  0  0
   12.7750   -2.7170   22.0120 Cl  0  0  0  0  0  0  0  0  0  0  0  0
   12.1845   -0.4816   23.4388 C   0  0  0  0  0  0  0  0  0  0  0  0
   11.2928    0.4248   23.9854 C   0  0  0  0  0  0  0  0  0  0  0  0
    9.9160    0.2487   23.8372 C   0  0  0  0  0  0  0  0  0  0  0  0
    8.9999    1.2716   24.4471 C   0  0  0  0  0  0  0  0  0  0  0  0
    9.3977    2.3487   24.8705 O   0  0  0  0  0  0  0  0  0  0  0  0
    6.1372    5.2598   22.8228 H   0  0  0  0  0  0  0  0  0  0  0  0
    6.6663    4.2964   21.4158 H   0  0  0  0  0  0  0  0  0  0  0  0
    5.0699    4.0207   22.1349 H   0  0  0  0  0  0  0  0  0  0  0  0
    7.5432    2.7901   22.8733 H   0  0  0  0  0  0  0  0  0  0  0  0
    5.9065    1.2405   25.5262 H   0  0  0  0  0  0  0  0  0  0  0  0
    7.2638    2.1929   26.1069 H   0  0  0  0  0  0  0  0  0  0  0  0
    6.1308   -0.3231   23.9243 H   0  0  0  0  0  0  0  0  0  0  0  0
    7.3720   -1.0833   24.9464 H   0  0  0  0  0  0  0  0  0  0  0  0
    7.1397   -1.0268   18.4058 H   0  0  0  0  0  0  0  0  0  0  0  0
    4.3388    1.4414   16.6567 H   0  0  0  0  0  0  0  0  0  0  0  0
    2.7093    2.7443   18.0316 H   0  0  0  0  0  0  0  0  0  0  0  0
    1.7855    3.3243   20.2610 H   0  0  0  0  0  0  0  0  0  0  0  0
    2.7493    2.3125   22.3195 H   0  0  0  0  0  0  0  0  0  0  0  0
    4.6246    0.7312   22.1626 H   0  0  0  0  0  0  0  0  0  0  0  0
    5.2250   -1.8570   22.1491 H   0  0  0  0  0  0  0  0  0  0  0  0
    5.9398   -2.6717   20.7501 H   0  0  0  0  0  0  0  0  0  0  0  0
    8.0896   -2.7389   21.7299 H   0  0  0  0  0  0  0  0  0  0  0  0
    6.2300   -2.9198   24.1222 H   0  0  0  0  0  0  0  0  0  0  0  0
    6.6838   -4.2459   23.0420 H   0  0  0  0  0  0  0  0  0  0  0  0
    8.8271   -4.6100   25.8847 H   0  0  0  0  0  0  0  0  0  0  0  0
    7.1612   -3.9903   26.0342 H   0  0  0  0  0  0  0  0  0  0  0  0
    7.4935   -5.3789   24.9827 H   0  0  0  0  0  0  0  0  0  0  0  0
    9.9607   -2.6481   22.0487 H   0  0  0  0  0  0  0  0  0  0  0  0
   13.2595   -0.3478   23.5320 H   0  0  0  0  0  0  0  0  0  0  0  0
   11.6501    1.2891   24.5365 H   0  0  0  0  0  0  0  0  0  0  0  0
  1  2  1  0
  2  3  1  0
  3  4  2  0
  3  5  1  0
  5  6  1  0
  6  7  1  0
  8  7  1  1
  8  9  1  0
  9 10  2  0
  9 11  1  0
 11 12  1  0
 12 13  2  0
 13 14  1  0
 14 15  2  0
 15 16  1  0
 16 17  2  0
 17 18  1  0
 18 19  2  0
 19 20  1  0
 20 21  2  0
 11 22  1  0
 22 23  1  0
 23 24  1  0
 24 25  1  0
 25 26  1  0
  8 27  1  0
 27 28  2  0
 28 29  1  0
 29 30  1  0
 29 31  2  0
 31 32  1  0
 32 33  2  0
 33 34  1  0
 34 35  2  0
 34  6  1  0
 23  8  1  0
 33 27  1  0
 21 12  1  0
 21 16  1  0
  1 36  1  0
  1 37  1  0
  1 38  1  0
  2 39  1  0
  5 40  1  0
  5 41  1  0
  7 42  1  0
  7 43  1  0
 13 44  1  0
 15 45  1  0
 17 46  1  0
 18 47  1  0
 19 48  1  0
 20 49  1  0
 22 50  1  0
 22 51  1  0
 23 52  1  6
 24 53  1  0
 24 54  1  0
 26 55  1  0
 26 56  1  0
 26 57  1  0
 28 58  1  0
 31 59  1  0
 32 60  1  0
M  END
>  <RMSD>  (18) 
0.1733263495015297

$$$$

     RDKit          3D

 56 60  0  0  0  0  0  0  0  0999 V2000
    6.1133    4.2697   22.3558 C   0  0  0  0  0  0  0  0  0  0  0  0
    6.7091    3.2586   23.2002 N   0  0  0  0  0  0  0  0  0  0  0  0
    6.2145    3.0261   24.4345 C   0  0  0  0  0  0  0  0  0  0  0  0
    5.3364    3.7048   24.9479 O   0  0  0  0  0  0  0  0  0  0  0  0
    6.7723    1.8212   25.2002 C   0  0  0  0  0  0  0  0  0  0  0  0
    7.6698    0.9421   24.4795 N   0  0  0  0  0  0  0  0  0  0  0  0
    7.2024   -0.3829   24.1158 C   0  0  0  0  0  0  0  0  0  0  0  0
    7.9206   -0.9117   22.8472 C   0  0  2  0  0  0  0  0  0  0  0  0
    7.5392   -0.0281   21.6335 C   0  0  0  0  0  0  0  0  0  0  0  0
    8.0070    1.0517   21.3286 O   0  0  0  0  0  0  0  0  0  0  0  0
    6.5319   -0.6641   20.9393 N   0  0  0  0  0  0  0  0  0  0  0  0
    5.8834   -0.0576   19.8297 C   0  0  0  0  0  0  0  0  0  0  0  0
    6.3056   -0.3463   18.5577 C   0  0  0  0  0  0  0  0  0  0  0  0
    5.7657    0.1753   17.4270 N   0  0  0  0  0  0  0  0  0  0  0  0
    4.7631    1.0128   17.5668 C   0  0  0  0  0  0  0  0  0  0  0  0
    4.2015    1.3821   18.8247 C   0  0  0  0  0  0  0  0  0  0  0  0
    3.1163    2.2968   18.9382 C   0  0  0  0  0  0  0  0  0  0  0  0
    2.6068    2.6162   20.1686 C   0  0  0  0  0  0  0  0  0  0  0  0
    3.1457    2.0383   21.3421 C   0  0  0  0  0  0  0  0  0  0  0  0
    4.2030    1.1663   21.2597 C   0  0  0  0  0  0  0  0  0  0  0  0
    4.7665    0.8219   19.9985 C   0  0  0  0  0  0  0  0  0  0  0  0
    6.1307   -1.9289   21.5269 C   0  0  0  0  0  0  0  0  0  0  0  0
    7.3500   -2.2817   22.3911 C   0  0  2  0  0  0  0  0  0  0  0  0
    7.0768   -3.2759   23.5088 C   0  0  0  0  0  0  0  0  0  0  0  0
    6.6845   -4.9047   22.8819 Cl  0  0  0  0  0  0  0  0  0  0  0  0
    9.4081   -0.8514   23.1191 C   0  0  0  0  0  0  0  0  0  0  0  0
   10.3129   -1.7756   22.5838 C   0  0  0  0  0  0  0  0  0  0  0  0
   11.6741   -1.5797   22.7402 C   0  0  0  0  0  0  0  0  0  0  0  0
   12.7733   -2.7179   22.0122 Cl  0  0  0  0  0  0  0  0  0  0  0  0
   12.1829   -0.4829   23.4391 C   0  0  0  0  0  0  0  0  0  0  0  0
   11.2917    0.4237   23.9854 C   0  0  0  0  0  0  0  0  0  0  0  0
    9.9149    0.2464   23.8354 C   0  0  0  0  0  0  0  0  0  0  0  0
    8.9976    1.2689   24.4452 C   0  0  0  0  0  0  0  0  0  0  0  0
    9.3979    2.3451   24.8683 O   0  0  0  0  0  0  0  0  0  0  0  0
    6.1386    5.2593   22.8233 H   0  0  0  0  0  0  0  0  0  0  0  0
    6.6664    4.2963   21.4154 H   0  0  0  0  0  0  0  0  0  0  0  0
    5.0697    4.0204   22.1350 H   0  0  0  0  0  0  0  0  0  0  0  0
    7.5450    2.7920   22.8748 H   0  0  0  0  0  0  0  0  0  0  0  0
    5.9048    1.2399   25.5273 H   0  0  0  0  0  0  0  0  0  0  0  0
    7.2628    2.1913   26.1073 H   0  0  0  0  0  0  0  0  0  0  0  0
    7.3637   -1.0773   24.9537 H   0  0  0  0  0  0  0  0  0  0  0  0
    6.1257   -0.3198   23.9259 H   0  0  0  0  0  0  0  0  0  0  0  0
    7.1398   -1.0277   18.4069 H   0  0  0  0  0  0  0  0  0  0  0  0
    4.3385    1.4418   16.6569 H   0  0  0  0  0  0  0  0  0  0  0  0
    2.7090    2.7447   18.0328 H   0  0  0  0  0  0  0  0  0  0  0  0
    1.7862    3.3238   20.2611 H   0  0  0  0  0  0  0  0  0  0  0  0
    2.7494    2.3120   22.3187 H   0  0  0  0  0  0  0  0  0  0  0  0
    4.6246    0.7312   22.1627 H   0  0  0  0  0  0  0  0  0  0  0  0
    5.2217   -1.8566   22.1494 H   0  0  0  0  0  0  0  0  0  0  0  0
    5.9406   -2.6727   20.7508 H   0  0  0  0  0  0  0  0  0  0  0  0
    8.0783   -2.7405   21.7231 H   0  0  0  0  0  0  0  0  0  0  0  0
    6.2280   -2.9656   24.1174 H   0  0  0  0  0  0  0  0  0  0  0  0
    7.9378   -3.3909   24.1713 H   0  0  0  0  0  0  0  0  0  0  0  0
    9.9666   -2.6505   22.0426 H   0  0  0  0  0  0  0  0  0  0  0  0
   13.2577   -0.3489   23.5319 H   0  0  0  0  0  0  0  0  0  0  0  0
   11.6512    1.2871   24.5366 H   0  0  0  0  0  0  0  0  0  0  0  0
  1  2  1  0
  2  3  1  0
  3  4  2  0
  3  5  1  0
  5  6  1  0
  6  7  1  0
  8  7  1  1
  8  9  1  0
  9 10  2  0
  9 11  1  0
 11 12  1  0
 12 13  2  0
 13 14  1  0
 14 15  2  0
 15 16  1  0
 16 17  2  0
 17 18  1  0
 18 19  2  0
 19 20  1  0
 20 21  2  0
 11 22  1  0
 22 23  1  0
 23 24  1  0
 24 25  1  0
  8 26  1  0
 26 27  2  0
 27 28  1  0
 28 29  1  0
 28 30  2  0
 30 31  1  0
 31 32  2  0
 32 33  1  0
 33 34  2  0
 33  6  1  0
 23  8  1  0
 32 26  1  0
 21 12  1  0
 21 16  1  0
  1 35  1  0
  1 36  1  0
  1 37  1  0
  2 38  1  0
  5 39  1  0
  5 40  1  0
  7 41  1  0
  7 42  1  0
 13 43  1  0
 15 44  1  0
 17 45  1  0
 18 46  1  0
 19 47  1  0
 20 48  1  0
 22 49  1  0
 22 50  1  0
 23 51  1  6
 24 52  1  0
 24 53  1  0
 27 54  1  0
 30 55  1  0
 31 56  1  0
M  END
>  <RMSD>  (19) 
0.17283926372872507

$$$$

     RDKit          3D

 56 61  0  0  0  0  0  0  0  0999 V2000
    5.9449    4.6284   21.2496 C   0  0  0  0  0  0  0  0  0  0  0  0
    5.7733    4.0980   22.5846 N   0  0  0  0  0  0  0  0  0  0  0  0
    4.7224    4.3080   23.4096 C   0  0  0  0  0  0  0  0  0  0  0  0
    4.9109    3.5007   24.5075 C   0  0  0  0  0  0  0  0  0  0  0  0
    6.1221    2.8222   24.2424 C   0  0  0  0  0  0  0  0  0  0  0  0
    6.7752    1.8223   25.1586 C   0  0  0  0  0  0  0  0  0  0  0  0
    7.6954    0.9188   24.5090 N   0  0  0  0  0  0  0  0  0  0  0  0
    7.2139   -0.3897   24.1100 C   0  0  0  0  0  0  0  0  0  0  0  0
    7.9316   -0.9065   22.8343 C   0  0  1  0  0  0  0  0  0  0  0  0
    7.3543   -2.2682   22.4012 C   0  0  0  0  0  0  0  0  0  0  0  0
    6.1327   -1.9297   21.5375 C   0  0  0  0  0  0  0  0  0  0  0  0
    6.5297   -0.6676   20.9389 N   0  0  0  0  0  0  0  0  0  0  0  0
    5.8819   -0.0606   19.8300 C   0  0  0  0  0  0  0  0  0  0  0  0
    6.3053   -0.3467   18.5570 C   0  0  0  0  0  0  0  0  0  0  0  0
    5.7640    0.1730   17.4280 N   0  0  0  0  0  0  0  0  0  0  0  0
    4.7617    1.0118   17.5697 C   0  0  0  0  0  0  0  0  0  0  0  0
    4.2043    1.3852   18.8273 C   0  0  0  0  0  0  0  0  0  0  0  0
    3.1188    2.3001   18.9424 C   0  0  0  0  0  0  0  0  0  0  0  0
    2.6085    2.6226   20.1717 C   0  0  0  0  0  0  0  0  0  0  0  0
    3.1520    2.0463   21.3426 C   0  0  0  0  0  0  0  0  0  0  0  0
    4.2123    1.1767   21.2602 C   0  0  0  0  0  0  0  0  0  0  0  0
    4.7703    0.8261   20.0008 C   0  0  0  0  0  0  0  0  0  0  0  0
    7.5506   -0.0303   21.6134 C   0  0  0  0  0  0  0  0  0  0  0  0
    8.0345    1.0228   21.2736 O   0  0  0  0  0  0  0  0  0  0  0  0
    9.4182   -0.8423   23.1065 C   0  0  0  0  0  0  0  0  0  0  0  0
   10.3182   -1.7662   22.5678 C   0  0  0  0  0  0  0  0  0  0  0  0
   11.6805   -1.5750   22.7285 C   0  0  0  0  0  0  0  0  0  0  0  0
   12.7759   -2.7162   22.0020 Cl  0  0  0  0  0  0  0  0  0  0  0  0
   12.1909   -0.4793   23.4289 C   0  0  0  0  0  0  0  0  0  0  0  0
   11.3010    0.4292   23.9732 C   0  0  0  0  0  0  0  0  0  0  0  0
    9.9253    0.2541   23.8218 C   0  0  0  0  0  0  0  0  0  0  0  0
    9.0137    1.2753   24.4378 C   0  0  0  0  0  0  0  0  0  0  0  0
    9.4182    2.3494   24.8613 O   0  0  0  0  0  0  0  0  0  0  0  0
    6.6235    3.1824   23.0671 N   0  0  0  0  0  0  0  0  0  0  0  0
    7.0099    4.7001   21.0248 H   0  0  0  0  0  0  0  0  0  0  0  0
    5.4298    4.0068   20.5049 H   0  0  0  0  0  0  0  0  0  0  0  0
    5.5169    5.6299   21.2212 H   0  0  0  0  0  0  0  0  0  0  0  0
    3.9220    4.9843   23.1295 H   0  0  0  0  0  0  0  0  0  0  0  0
    4.2731    3.3938   25.3755 H   0  0  0  0  0  0  0  0  0  0  0  0
    5.9969    1.2265   25.6473 H   0  0  0  0  0  0  0  0  0  0  0  0
    7.3148    2.3330   25.9605 H   0  0  0  0  0  0  0  0  0  0  0  0
    7.3663   -1.1050   24.9329 H   0  0  0  0  0  0  0  0  0  0  0  0
    6.1373   -0.3139   23.9196 H   0  0  0  0  0  0  0  0  0  0  0  0
    7.1273   -2.9181   23.2481 H   0  0  0  0  0  0  0  0  0  0  0  0
    8.0712   -2.8078   21.7842 H   0  0  0  0  0  0  0  0  0  0  0  0
    5.9463   -2.6677   20.7533 H   0  0  0  0  0  0  0  0  0  0  0  0
    5.2196   -1.8568   22.1525 H   0  0  0  0  0  0  0  0  0  0  0  0
    7.1383   -1.0285   18.4045 H   0  0  0  0  0  0  0  0  0  0  0  0
    4.3348    1.4375   16.6600 H   0  0  0  0  0  0  0  0  0  0  0  0
    2.7093    2.7427   18.0361 H   0  0  0  0  0  0  0  0  0  0  0  0
    1.7811    3.3256   20.2523 H   0  0  0  0  0  0  0  0  0  0  0  0
    2.7296    2.2948   22.3130 H   0  0  0  0  0  0  0  0  0  0  0  0
    4.6348    0.7288   22.1566 H   0  0  0  0  0  0  0  0  0  0  0  0
    9.9649   -2.6387   22.0266 H   0  0  0  0  0  0  0  0  0  0  0  0
   13.2659   -0.3448   23.5196 H   0  0  0  0  0  0  0  0  0  0  0  0
   11.6561    1.2947   24.5232 H   0  0  0  0  0  0  0  0  0  0  0  0
  1  2  1  0
  2  3  1  0
  3  4  2  0
  4  5  1  0
  5  6  1  0
  6  7  1  0
  7  8  1  0
  9  8  1  1
  9 10  1  0
 10 11  1  0
 11 12  1  0
 12 13  1  0
 13 14  2  0
 14 15  1  0
 15 16  2  0
 16 17  1  0
 17 18  2  0
 18 19  1  0
 19 20  2  0
 20 21  1  0
 21 22  2  0
 12 23  1  0
 23 24  2  0
  9 25  1  0
 25 26  2  0
 26 27  1  0
 27 28  1  0
 27 29  2  0
 29 30  1  0
 30 31  2  0
 31 32  1  0
 32 33  2  0
  5 34  2  0
 34  2  1  0
 32  7  1  0
 23  9  1  0
 31 25  1  0
 22 13  1  0
 22 17  1  0
  1 35  1  0
  1 36  1  0
  1 37  1  0
  3 38  1  0
  4 39  1  0
  6 40  1  0
  6 41  1  0
  8 42  1  0
  8 43  1  0
 10 44  1  0
 10 45  1  0
 11 46  1  0
 11 47  1  0
 14 48  1  0
 16 49  1  0
 18 50  1  0
 19 51  1  0
 20 52  1  0
 21 53  1  0
 26 54  1  0
 29 55  1  0
 30 56  1  0
M  END
>  <RMSD>  (20) 
0.17367346688066929

$$$$

     RDKit          3D

 67 72  0  0  0  0  0  0  0  0999 V2000
    7.1710   -3.2595   23.4974 C   0  0  0  0  0  0  0  0  0  0  0  0
    7.3809   -2.2603   22.3703 C   0  0  1  0  0  0  0  0  0  0  0  0
    6.1227   -1.9406   21.5518 C   0  0  0  0  0  0  0  0  0  0  0  0
    6.4989   -0.6944   20.9052 N   0  0  0  0  0  0  0  0  0  0  0  0
    5.8491   -0.0965   19.8061 C   0  0  0  0  0  0  0  0  0  0  0  0
    6.3173   -0.3357   18.5385 C   0  0  0  0  0  0  0  0  0  0  0  0
    5.7853    0.2013   17.4160 N   0  0  0  0  0  0  0  0  0  0  0  0
    4.7661    1.0151   17.5771 C   0  0  0  0  0  0  0  0  0  0  0  0
    4.2042    1.3689   18.8383 C   0  0  0  0  0  0  0  0  0  0  0  0
    3.1214    2.2840   18.9431 C   0  0  0  0  0  0  0  0  0  0  0  0
    2.6121    2.6173   20.1709 C   0  0  0  0  0  0  0  0  0  0  0  0
    3.1579    2.0593   21.3484 C   0  0  0  0  0  0  0  0  0  0  0  0
    4.2038    1.1660   21.2721 C   0  0  0  0  0  0  0  0  0  0  0  0
    4.7523    0.7947   20.0066 C   0  0  0  0  0  0  0  0  0  0  0  0
    7.6450   -0.1245   21.4095 C   0  0  0  0  0  0  0  0  0  0  0  0
    8.2473    0.7905   20.8771 O   0  0  0  0  0  0  0  0  0  0  0  0
    7.9753   -0.8589   22.7282 C   0  0  1  0  0  0  0  0  0  0  0  0
    7.2267   -0.1969   23.9189 C   0  0  0  0  0  0  0  0  0  0  0  0
    7.8380    1.0604   24.3115 N   0  0  0  0  0  0  0  0  0  0  0  0
    7.0638    2.2831   24.4404 C   0  0  0  0  0  0  0  0  0  0  0  0
    7.0189    3.0576   23.1185 C   0  0  0  0  0  0  0  0  0  0  0  0
    6.2458    4.2864   23.2377 N   0  0  0  0  0  0  0  0  0  0  0  0
    5.6707    4.7236   21.9715 C   0  0  0  0  0  0  0  0  0  0  0  0
    4.5392    5.7271   22.1802 C   0  0  0  0  0  0  0  0  0  0  0  0
    5.1100    7.1841   23.0606 S   0  0  0  0  0  0  0  0  0  0  0  0
    3.9623    7.8807   23.6335 O   0  0  0  0  0  0  0  0  0  0  0  0
    6.0527    7.8882   22.1907 O   0  0  0  0  0  0  0  0  0  0  0  0
    6.0717    6.4616   24.3913 C   0  0  0  0  0  0  0  0  0  0  0  0
    7.0003    5.3739   23.8547 C   0  0  0  0  0  0  0  0  0  0  0  0
    9.1583    1.0857   24.6649 C   0  0  0  0  0  0  0  0  0  0  0  0
    9.6343    1.9163   25.4251 O   0  0  0  0  0  0  0  0  0  0  0  0
    9.9997    0.0459   23.9868 C   0  0  0  0  0  0  0  0  0  0  0  0
   11.3670    0.0527   24.2496 C   0  0  0  0  0  0  0  0  0  0  0  0
   12.2281   -0.7083   23.4854 C   0  0  0  0  0  0  0  0  0  0  0  0
   11.6949   -1.4923   22.4648 C   0  0  0  0  0  0  0  0  0  0  0  0
   12.7572   -2.4001   21.4353 Cl  0  0  0  0  0  0  0  0  0  0  0  0
   10.3339   -1.5766   22.2452 C   0  0  0  0  0  0  0  0  0  0  0  0
    9.4557   -0.8152   23.0228 C   0  0  0  0  0  0  0  0  0  0  0  0
    6.8788   -4.2308   23.0825 H   0  0  0  0  0  0  0  0  0  0  0  0
    8.0894   -3.3995   24.0768 H   0  0  0  0  0  0  0  0  0  0  0  0
    6.3803   -2.9327   24.1820 H   0  0  0  0  0  0  0  0  0  0  0  0
    8.0843   -2.6989   21.6563 H   0  0  0  0  0  0  0  0  0  0  0  0
    5.9003   -2.7143   20.8097 H   0  0  0  0  0  0  0  0  0  0  0  0
    5.2335   -1.8361   22.1943 H   0  0  0  0  0  0  0  0  0  0  0  0
    7.1750   -0.9913   18.4065 H   0  0  0  0  0  0  0  0  0  0  0  0
    4.3299    1.4479   16.6782 H   0  0  0  0  0  0  0  0  0  0  0  0
    2.7148    2.7096   18.0300 H   0  0  0  0  0  0  0  0  0  0  0  0
    1.7788    3.3109   20.2455 H   0  0  0  0  0  0  0  0  0  0  0  0
    2.7628    2.3600   22.3185 H   0  0  0  0  0  0  0  0  0  0  0  0
    4.6072    0.7506   22.1902 H   0  0  0  0  0  0  0  0  0  0  0  0
    6.1775   -0.0016   23.6727 H   0  0  0  0  0  0  0  0  0  0  0  0
    7.2579   -0.8891   24.7737 H   0  0  0  0  0  0  0  0  0  0  0  0
    6.0446    2.0192   24.7441 H   0  0  0  0  0  0  0  0  0  0  0  0
    7.5268    2.8713   25.2398 H   0  0  0  0  0  0  0  0  0  0  0  0
    8.0446    3.2461   22.7575 H   0  0  0  0  0  0  0  0  0  0  0  0
    6.5663    2.4043   22.3634 H   0  0  0  0  0  0  0  0  0  0  0  0
    5.2489    3.8587   21.4523 H   0  0  0  0  0  0  0  0  0  0  0  0
    6.4335    5.1540   21.2990 H   0  0  0  0  0  0  0  0  0  0  0  0
    4.1436    6.0912   21.2265 H   0  0  0  0  0  0  0  0  0  0  0  0
    3.7172    5.2925   22.7556 H   0  0  0  0  0  0  0  0  0  0  0  0
    5.3726    6.0736   25.1374 H   0  0  0  0  0  0  0  0  0  0  0  0
    6.6268    7.2957   24.8313 H   0  0  0  0  0  0  0  0  0  0  0  0
    7.5804    4.9914   24.6982 H   0  0  0  0  0  0  0  0  0  0  0  0
    7.7283    5.8215   23.1552 H   0  0  0  0  0  0  0  0  0  0  0  0
   11.7241    0.7014   25.0405 H   0  0  0  0  0  0  0  0  0  0  0  0
   13.3003   -0.6601   23.6344 H   0  0  0  0  0  0  0  0  0  0  0  0
    9.9717   -2.2097   21.4429 H   0  0  0  0  0  0  0  0  0  0  0  0
  1  2  1  0
  2  3  1  0
  3  4  1  0
  4  5  1  0
  5  6  2  0
  6  7  1  0
  7  8  2  0
  8  9  1  0
  9 10  2  0
 10 11  1  0
 11 12  2  0
 12 13  1  0
 13 14  2  0
  4 15  1  0
 15 16  2  0
 15 17  1  0
 17 18  1  1
 18 19  1  0
 19 20  1  0
 20 21  1  0
 21 22  1  0
 22 23  1  0
 23 24  1  0
 24 25  1  0
 25 26  2  0
 25 27  2  0
 25 28  1  0
 28 29  1  0
 19 30  1  0
 30 31  2  0
 30 32  1  0
 32 33  2  0
 33 34  1  0
 34 35  2  0
 35 36  1  0
 35 37  1  0
 37 38  2  0
 17  2  1  0
 29 22  1  0
 38 32  1  0
 14  5  1  0
 38 17  1  0
 14  9  1  0
  1 39  1  0
  1 40  1  0
  1 41  1  0
  2 42  1  6
  3 43  1  0
  3 44  1  0
  6 45  1  0
  8 46  1  0
 10 47  1  0
 11 48  1  0
 12 49  1  0
 13 50  1  0
 18 51  1  0
 18 52  1  0
 20 53  1  0
 20 54  1  0
 21 55  1  0
 21 56  1  0
 23 57  1  0
 23 58  1  0
 24 59  1  0
 24 60  1  0
 28 61  1  0
 28 62  1  0
 29 63  1  0
 29 64  1  0
 33 65  1  0
 34 66  1  0
 37 67  1  0
M  END
>  <RMSD>  (21) 
0.18820830464917757

$$$$

     RDKit          3D

 62 67  0  0  0  0  0  0  0  0999 V2000
    7.9012    4.8830   26.9717 C   0  0  0  0  0  0  0  0  0  0  0  0
    6.4653    4.6311   26.5343 C   0  0  0  0  0  0  0  0  0  0  0  0
    6.3318    4.3304   25.1149 N   0  0  0  0  0  0  0  0  0  0  0  0
    6.0902    5.3120   24.2298 N   0  0  0  0  0  0  0  0  0  0  0  0
    6.0745    4.7085   23.0458 C   0  0  0  0  0  0  0  0  0  0  0  0
    6.3343    3.3328   23.1586 C   0  0  0  0  0  0  0  0  0  0  0  0
    6.5173    3.1300   24.5060 C   0  0  0  0  0  0  0  0  0  0  0  0
    6.7770    1.8368   25.2152 C   0  0  0  0  0  0  0  0  0  0  0  0
    7.6634    0.9618   24.4620 N   0  0  0  0  0  0  0  0  0  0  0  0
    7.2074   -0.3723   24.1116 C   0  0  0  0  0  0  0  0  0  0  0  0
    7.9257   -0.9067   22.8459 C   0  0  2  0  0  0  0  0  0  0  0  0
    7.5433   -0.0258   21.6292 C   0  0  0  0  0  0  0  0  0  0  0  0
    8.0158    1.0448   21.3124 O   0  0  0  0  0  0  0  0  0  0  0  0
    6.5333   -0.6619   20.9402 N   0  0  0  0  0  0  0  0  0  0  0  0
    5.8826   -0.0598   19.8288 C   0  0  0  0  0  0  0  0  0  0  0  0
    6.3074   -0.3443   18.5568 C   0  0  0  0  0  0  0  0  0  0  0  0
    5.7654    0.1771   17.4267 N   0  0  0  0  0  0  0  0  0  0  0  0
    4.7624    1.0122   17.5682 C   0  0  0  0  0  0  0  0  0  0  0  0
    4.2009    1.3806   18.8260 C   0  0  0  0  0  0  0  0  0  0  0  0
    3.1157    2.2955   18.9408 C   0  0  0  0  0  0  0  0  0  0  0  0
    2.6111    2.6213   20.1697 C   0  0  0  0  0  0  0  0  0  0  0  0
    3.1561    2.0510   21.3433 C   0  0  0  0  0  0  0  0  0  0  0  0
    4.2003    1.1618   21.2574 C   0  0  0  0  0  0  0  0  0  0  0  0
    4.7628    0.8165   19.9980 C   0  0  0  0  0  0  0  0  0  0  0  0
    6.1409   -1.9265   21.5334 C   0  0  0  0  0  0  0  0  0  0  0  0
    7.3571   -2.2808   22.3999 C   0  0  2  0  0  0  0  0  0  0  0  0
    7.0684   -3.2821   23.5100 C   0  0  0  0  0  0  0  0  0  0  0  0
    9.4132   -0.8361   23.1152 C   0  0  0  0  0  0  0  0  0  0  0  0
   10.3170   -1.7640   22.5874 C   0  0  0  0  0  0  0  0  0  0  0  0
   11.6713   -1.5596   22.7550 C   0  0  0  0  0  0  0  0  0  0  0  0
   12.5222   -2.4483   22.2139 F   0  0  0  0  0  0  0  0  0  0  0  0
   12.1907   -0.4653   23.4413 C   0  0  0  0  0  0  0  0  0  0  0  0
   11.2962    0.4414   23.9793 C   0  0  0  0  0  0  0  0  0  0  0  0
    9.9178    0.2672   23.8250 C   0  0  0  0  0  0  0  0  0  0  0  0
    8.9918    1.2885   24.4294 C   0  0  0  0  0  0  0  0  0  0  0  0
    9.4069    2.3438   24.8851 O   0  0  0  0  0  0  0  0  0  0  0  0
    8.3148    5.7197   26.4074 H   0  0  0  0  0  0  0  0  0  0  0  0
    8.5300    4.0040   26.7973 H   0  0  0  0  0  0  0  0  0  0  0  0
    7.9387    5.1395   28.0360 H   0  0  0  0  0  0  0  0  0  0  0  0
    5.8393    5.5004   26.7310 H   0  0  0  0  0  0  0  0  0  0  0  0
    6.0385    3.8038   27.1040 H   0  0  0  0  0  0  0  0  0  0  0  0
    5.8745    5.2720   22.1451 H   0  0  0  0  0  0  0  0  0  0  0  0
    6.3947    2.5775   22.3820 H   0  0  0  0  0  0  0  0  0  0  0  0
    7.1809    2.0000   26.2253 H   0  0  0  0  0  0  0  0  0  0  0  0
    5.8225    1.3074   25.3241 H   0  0  0  0  0  0  0  0  0  0  0  0
    7.3763   -1.0646   24.9511 H   0  0  0  0  0  0  0  0  0  0  0  0
    6.1301   -0.3239   23.9223 H   0  0  0  0  0  0  0  0  0  0  0  0
    7.1434   -1.0241   18.4077 H   0  0  0  0  0  0  0  0  0  0  0  0
    4.3360    1.4402   16.6582 H   0  0  0  0  0  0  0  0  0  0  0  0
    2.7067    2.7416   18.0349 H   0  0  0  0  0  0  0  0  0  0  0  0
    1.7857    3.3241   20.2579 H   0  0  0  0  0  0  0  0  0  0  0  0
    2.7478    2.3105   22.3159 H   0  0  0  0  0  0  0  0  0  0  0  0
    4.6190    0.7253   22.1607 H   0  0  0  0  0  0  0  0  0  0  0  0
    5.9486   -2.6679   20.7552 H   0  0  0  0  0  0  0  0  0  0  0  0
    5.2321   -1.8483   22.1551 H   0  0  0  0  0  0  0  0  0  0  0  0
    8.0832   -2.7277   21.7167 H   0  0  0  0  0  0  0  0  0  0  0  0
    6.7886   -4.2592   23.1041 H   0  0  0  0  0  0  0  0  0  0  0  0
    7.9384   -3.4262   24.1590 H   0  0  0  0  0  0  0  0  0  0  0  0
    6.2463   -2.9408   24.1465 H   0  0  0  0  0  0  0  0  0  0  0  0
    9.9872   -2.6456   22.0466 H   0  0  0  0  0  0  0  0  0  0  0  0
   13.2683   -0.3437   23.5275 H   0  0  0  0  0  0  0  0  0  0  0  0
   11.6603    1.3023   24.5286 H   0  0  0  0  0  0  0  0  0  0  0  0
  1  2  1  0
  2  3  1  0
  3  4  1  0
  4  5  2  0
  5  6  1  0
  6  7  2  0
  7  8  1  0
  8  9  1  0
  9 10  1  0
 11 10  1  1
 11 12  1  0
 12 13  2  0
 12 14  1  0
 14 15  1  0
 15 16  2  0
 16 17  1  0
 17 18  2  0
 18 19  1  0
 19 20  2  0
 20 21  1  0
 21 22  2  0
 22 23  1  0
 23 24  2  0
 14 25  1  0
 25 26  1  0
 26 27  1  0
 11 28  1  0
 28 29  2  0
 29 30  1  0
 30 31  1  0
 30 32  2  0
 32 33  1  0
 33 34  2  0
 34 35  1  0
 35 36  2  0
  7  3  1  0
 35  9  1  0
 26 11  1  0
 34 28  1  0
 24 15  1  0
 24 19  1  0
  1 37  1  0
  1 38  1  0
  1 39  1  0
  2 40  1  0
  2 41  1  0
  5 42  1  0
  6 43  1  0
  8 44  1  0
  8 45  1  0
 10 46  1  0
 10 47  1  0
 16 48  1  0
 18 49  1  0
 20 50  1  0
 21 51  1  0
 22 52  1  0
 23 53  1  0
 25 54  1  0
 25 55  1  0
 26 56  1  6
 27 57  1  0
 27 58  1  0
 27 59  1  0
 29 60  1  0
 32 61  1  0
 33 62  1  0
M  END
>  <RMSD>  (22) 
0.17251085904973124

$$$$

     RDKit          3D

 67 73  0  0  0  0  0  0  0  0999 V2000
    5.8625    2.2413   29.3035 C   0  0  0  0  0  0  0  0  0  0  0  0
    5.7043    2.0590   27.8354 C   0  0  0  0  0  0  0  0  0  0  0  0
    4.6602    1.6491   27.1969 N   0  0  0  0  0  0  0  0  0  0  0  0
    5.0104    1.6151   25.8499 N   0  0  0  0  0  0  0  0  0  0  0  0
    6.2372    2.0015   25.7855 C   0  0  0  0  0  0  0  0  0  0  0  0
    7.1000    2.0722   24.5647 C   0  0  0  0  0  0  0  0  0  0  0  0
    7.9024    0.8850   24.3569 N   0  0  0  0  0  0  0  0  0  0  0  0
    7.2616   -0.3579   23.9723 C   0  0  0  0  0  0  0  0  0  0  0  0
    7.9939   -0.9621   22.7507 C   0  0  2  0  0  0  0  0  0  0  0  0
    7.6266   -0.0962   21.5160 C   0  0  0  0  0  0  0  0  0  0  0  0
    8.1494    0.9249   21.1267 O   0  0  0  0  0  0  0  0  0  0  0  0
    6.5302   -0.6799   20.9185 N   0  0  0  0  0  0  0  0  0  0  0  0
    5.8825   -0.0625   19.8223 C   0  0  0  0  0  0  0  0  0  0  0  0
    6.3103   -0.3381   18.5501 C   0  0  0  0  0  0  0  0  0  0  0  0
    5.7664    0.1850   17.4222 N   0  0  0  0  0  0  0  0  0  0  0  0
    4.7606    1.0140   17.5758 C   0  0  0  0  0  0  0  0  0  0  0  0
    4.2046    1.3816   18.8370 C   0  0  0  0  0  0  0  0  0  0  0  0
    3.1172    2.2906   18.9430 C   0  0  0  0  0  0  0  0  0  0  0  0
    2.6045    2.6172   20.1700 C   0  0  0  0  0  0  0  0  0  0  0  0
    3.1494    2.0486   21.3439 C   0  0  0  0  0  0  0  0  0  0  0  0
    4.2039    1.1695   21.2664 C   0  0  0  0  0  0  0  0  0  0  0  0
    4.7683    0.8219   20.0060 C   0  0  0  0  0  0  0  0  0  0  0  0
    6.1470   -1.9530   21.4951 C   0  0  0  0  0  0  0  0  0  0  0  0
    7.3944   -2.3317   22.3115 C   0  0  2  0  0  0  0  0  0  0  0  0
    7.1382   -3.3828   23.4094 C   0  0  0  0  0  0  0  0  0  0  0  0
    6.8699   -4.7165   22.9135 N   0  0  0  0  0  0  0  0  0  0  0  0
    5.6906   -5.1384   22.3995 C   0  0  0  0  0  0  0  0  0  0  0  0
    4.4553   -4.5396   22.7126 C   0  0  0  0  0  0  0  0  0  0  0  0
    3.3351   -5.0920   22.1249 C   0  0  0  0  0  0  0  0  0  0  0  0
    3.3937   -6.1376   21.2916 N   0  0  0  0  0  0  0  0  0  0  0  0
    4.6093   -6.6276   21.0891 C   0  0  0  0  0  0  0  0  0  0  0  0
    5.7630   -6.2074   21.5907 N   0  0  0  0  0  0  0  0  0  0  0  0
    9.4862   -0.9294   23.0085 C   0  0  0  0  0  0  0  0  0  0  0  0
   10.3522   -1.6372   22.1640 C   0  0  0  0  0  0  0  0  0  0  0  0
   11.7202   -1.5484   22.3431 C   0  0  0  0  0  0  0  0  0  0  0  0
   12.7667   -2.4606   21.2967 Cl  0  0  0  0  0  0  0  0  0  0  0  0
   12.2823   -0.7543   23.3419 C   0  0  0  0  0  0  0  0  0  0  0  0
   11.4364   -0.0328   24.1619 C   0  0  0  0  0  0  0  0  0  0  0  0
   10.0533   -0.1027   23.9905 C   0  0  0  0  0  0  0  0  0  0  0  0
    9.1968    0.8201   24.8080 C   0  0  0  0  0  0  0  0  0  0  0  0
    9.6193    1.4952   25.7286 O   0  0  0  0  0  0  0  0  0  0  0  0
    6.7466    2.3165   26.9998 O   0  0  0  0  0  0  0  0  0  0  0  0
    6.1163    1.2910   29.7850 H   0  0  0  0  0  0  0  0  0  0  0  0
    6.6409    2.9691   29.5380 H   0  0  0  0  0  0  0  0  0  0  0  0
    4.9063    2.5661   29.7144 H   0  0  0  0  0  0  0  0  0  0  0  0
    7.7624    2.9410   24.6106 H   0  0  0  0  0  0  0  0  0  0  0  0
    6.4336    2.1831   23.6994 H   0  0  0  0  0  0  0  0  0  0  0  0
    6.2152   -0.1361   23.7348 H   0  0  0  0  0  0  0  0  0  0  0  0
    7.2783   -1.0639   24.8197 H   0  0  0  0  0  0  0  0  0  0  0  0
    7.1399   -1.0271   18.4042 H   0  0  0  0  0  0  0  0  0  0  0  0
    4.3373    1.4429   16.6675 H   0  0  0  0  0  0  0  0  0  0  0  0
    2.7201    2.7255   18.0285 H   0  0  0  0  0  0  0  0  0  0  0  0
    1.7817    3.3238   20.2504 H   0  0  0  0  0  0  0  0  0  0  0  0
    2.7394    2.3195   22.3134 H   0  0  0  0  0  0  0  0  0  0  0  0
    4.6208    0.7355   22.1720 H   0  0  0  0  0  0  0  0  0  0  0  0
    5.2643   -1.8565   22.1494 H   0  0  0  0  0  0  0  0  0  0  0  0
    5.8882   -2.6747   20.7158 H   0  0  0  0  0  0  0  0  0  0  0  0
    8.1250   -2.7580   21.6181 H   0  0  0  0  0  0  0  0  0  0  0  0
    6.2972   -3.0743   24.0448 H   0  0  0  0  0  0  0  0  0  0  0  0
    8.0183   -3.4727   24.0510 H   0  0  0  0  0  0  0  0  0  0  0  0
    7.6464   -5.3065   22.6552 H   0  0  0  0  0  0  0  0  0  0  0  0
    4.3877   -3.7036   23.3998 H   0  0  0  0  0  0  0  0  0  0  0  0
    2.3352   -4.6977   22.3297 H   0  0  0  0  0  0  0  0  0  0  0  0
    4.6636   -7.4931   20.4383 H   0  0  0  0  0  0  0  0  0  0  0  0
    9.9650   -2.2358   21.3460 H   0  0  0  0  0  0  0  0  0  0  0  0
   13.3611   -0.6947   23.4429 H   0  0  0  0  0  0  0  0  0  0  0  0
   11.8259    0.6257   24.9309 H   0  0  0  0  0  0  0  0  0  0  0  0
  1  2  1  0
  2  3  2  0
  3  4  1  0
  4  5  2  0
  5  6  1  0
  6  7  1  0
  7  8  1  0
  9  8  1  1
  9 10  1  0
 10 11  2  0
 10 12  1  0
 12 13  1  0
 13 14  2  0
 14 15  1  0
 15 16  2  0
 16 17  1  0
 17 18  2  0
 18 19  1  0
 19 20  2  0
 20 21  1  0
 21 22  2  0
 12 23  1  0
 23 24  1  0
 24 25  1  0
 25 26  1  0
 26 27  1  0
 27 28  2  0
 28 29  1  0
 29 30  2  0
 30 31  1  0
 31 32  2  0
  9 33  1  0
 33 34  2  0
 34 35  1  0
 35 36  1  0
 35 37  2  0
 37 38  1  0
 38 39  2  0
 39 40  1  0
 40 41  2  0
  5 42  1  0
 42  2  1  0
 40  7  1  0
 24  9  1  0
 32 27  1  0
 39 33  1  0
 22 13  1  0
 22 17  1  0
  1 43  1  0
  1 44  1  0
  1 45  1  0
  6 46  1  0
  6 47  1  0
  8 48  1  0
  8 49  1  0
 14 50  1  0
 16 51  1  0
 18 52  1  0
 19 53  1  0
 20 54  1  0
 21 55  1  0
 23 56  1  0
 23 57  1  0
 24 58  1  6
 25 59  1  0
 25 60  1  0
 26 61  1  0
 28 62  1  0
 29 63  1  0
 31 64  1  0
 34 65  1  0
 37 66  1  0
 38 67  1  0
M  END
>  <RMSD>  (23) 
0.17643406754469879

$$$$

     RDKit          3D

 70 76  0  0  0  0  0  0  0  0999 V2000
    7.1828   -3.2210   23.5411 C   0  0  0  0  0  0  0  0  0  0  0  0
    7.3937   -2.2400   22.3968 C   0  0  1  0  0  0  0  0  0  0  0  0
    6.1308   -1.9184   21.5827 C   0  0  0  0  0  0  0  0  0  0  0  0
    6.5154   -0.6806   20.9197 N   0  0  0  0  0  0  0  0  0  0  0  0
    5.8609   -0.0859   19.8158 C   0  0  0  0  0  0  0  0  0  0  0  0
    6.3181   -0.3350   18.5466 C   0  0  0  0  0  0  0  0  0  0  0  0
    5.7726    0.1899   17.4215 N   0  0  0  0  0  0  0  0  0  0  0  0
    4.7555    1.0049   17.5741 C   0  0  0  0  0  0  0  0  0  0  0  0
    4.1941    1.3664   18.8344 C   0  0  0  0  0  0  0  0  0  0  0  0
    3.1205    2.2910   18.9443 C   0  0  0  0  0  0  0  0  0  0  0  0
    2.6147    2.6249   20.1720 C   0  0  0  0  0  0  0  0  0  0  0  0
    3.1548    2.0548   21.3455 C   0  0  0  0  0  0  0  0  0  0  0  0
    4.2011    1.1635   21.2664 C   0  0  0  0  0  0  0  0  0  0  0  0
    4.7530    0.7994   20.0033 C   0  0  0  0  0  0  0  0  0  0  0  0
    7.6723   -0.1211   21.4192 C   0  0  0  0  0  0  0  0  0  0  0  0
    8.2950    0.7715   20.8768 O   0  0  0  0  0  0  0  0  0  0  0  0
    7.9913   -0.8386   22.7495 C   0  0  1  0  0  0  0  0  0  0  0  0
    7.2268   -0.1828   23.9433 C   0  0  0  0  0  0  0  0  0  0  0  0
    7.8407    1.0613   24.3826 N   0  0  0  0  0  0  0  0  0  0  0  0
    7.0654    2.2872   24.4731 C   0  0  0  0  0  0  0  0  0  0  0  0
    7.0067    3.0193   23.1342 C   0  0  0  0  0  0  0  0  0  0  0  0
    6.2107    4.2625   23.2248 N   0  0  2  0  0  0  0  0  0  0  0  0
    5.9602    4.9342   21.9085 C   0  0  0  0  0  0  0  0  0  0  0  0
    5.5329    6.3549   22.2631 C   0  0  0  0  0  0  0  0  0  0  0  0
    6.1897    6.6628   23.6179 C   0  0  0  0  0  0  0  0  0  0  0  0
    7.1046    7.8947   23.6772 C   0  0  0  0  0  0  0  0  0  0  0  0
    6.4492    8.4097   24.8391 O   0  0  0  0  0  0  0  0  0  0  0  0
    5.3890    7.4628   24.6677 C   0  0  0  0  0  0  0  0  0  0  0  0
    6.8045    5.3442   24.1001 C   0  0  0  0  0  0  0  0  0  0  0  0
    9.1783    1.1122   24.6765 C   0  0  0  0  0  0  0  0  0  0  0  0
    9.6833    1.9744   25.3865 O   0  0  0  0  0  0  0  0  0  0  0  0
   10.0171    0.0704   23.9982 C   0  0  0  0  0  0  0  0  0  0  0  0
   11.3890    0.0908   24.2518 C   0  0  0  0  0  0  0  0  0  0  0  0
   12.2555   -0.6777   23.5002 C   0  0  0  0  0  0  0  0  0  0  0  0
   11.7200   -1.4852   22.4948 C   0  0  0  0  0  0  0  0  0  0  0  0
   12.7990   -2.3967   21.4729 Cl  0  0  0  0  0  0  0  0  0  0  0  0
   10.3572   -1.5558   22.2625 C   0  0  0  0  0  0  0  0  0  0  0  0
    9.4735   -0.7906   23.0350 C   0  0  0  0  0  0  0  0  0  0  0  0
    6.8877   -4.2004   23.1446 H   0  0  0  0  0  0  0  0  0  0  0  0
    8.1085   -3.3455   24.1138 H   0  0  0  0  0  0  0  0  0  0  0  0
    6.3963   -2.8786   24.2272 H   0  0  0  0  0  0  0  0  0  0  0  0
    8.0815   -2.6949   21.6742 H   0  0  0  0  0  0  0  0  0  0  0  0
    5.2465   -1.7984   22.2296 H   0  0  0  0  0  0  0  0  0  0  0  0
    5.8912   -2.7077   20.8605 H   0  0  0  0  0  0  0  0  0  0  0  0
    7.1712   -0.9943   18.4020 H   0  0  0  0  0  0  0  0  0  0  0  0
    4.3340    1.4413   16.6675 H   0  0  0  0  0  0  0  0  0  0  0  0
    2.7182    2.7240   18.0323 H   0  0  0  0  0  0  0  0  0  0  0  0
    1.7898    3.3284   20.2502 H   0  0  0  0  0  0  0  0  0  0  0  0
    2.7484    2.3286   22.3159 H   0  0  0  0  0  0  0  0  0  0  0  0
    4.6146    0.7465   22.1797 H   0  0  0  0  0  0  0  0  0  0  0  0
    7.2133   -0.9005   24.7808 H   0  0  0  0  0  0  0  0  0  0  0  0
    6.1881    0.0361   23.6662 H   0  0  0  0  0  0  0  0  0  0  0  0
    7.5357    2.9058   25.2380 H   0  0  0  0  0  0  0  0  0  0  0  0
    6.0411    2.0739   24.8075 H   0  0  0  0  0  0  0  0  0  0  0  0
    8.0186    3.2617   22.7842 H   0  0  0  0  0  0  0  0  0  0  0  0
    6.5563    2.3688   22.3783 H   0  0  0  0  0  0  0  0  0  0  0  0
    5.2777    3.9927   23.6073 H   0  0  0  0  0  0  0  0  0  0  0  0
    5.2112    4.3763   21.3434 H   0  0  0  0  0  0  0  0  0  0  0  0
    6.8920    4.9311   21.3355 H   0  0  0  0  0  0  0  0  0  0  0  0
    5.8586    7.0598   21.4886 H   0  0  0  0  0  0  0  0  0  0  0  0
    4.4393    6.4246   22.3325 H   0  0  0  0  0  0  0  0  0  0  0  0
    6.9345    8.5578   22.8215 H   0  0  0  0  0  0  0  0  0  0  0  0
    8.1791    7.7399   23.8228 H   0  0  0  0  0  0  0  0  0  0  0  0
    5.1474    6.9745   25.6172 H   0  0  0  0  0  0  0  0  0  0  0  0
    4.4858    7.9248   24.2425 H   0  0  0  0  0  0  0  0  0  0  0  0
    6.5832    5.1178   25.1468 H   0  0  0  0  0  0  0  0  0  0  0  0
    7.8939    5.3255   23.9601 H   0  0  0  0  0  0  0  0  0  0  0  0
   11.7486    0.7473   25.0365 H   0  0  0  0  0  0  0  0  0  0  0  0
   13.3281   -0.6408   23.6722 H   0  0  0  0  0  0  0  0  0  0  0  0
    9.9972   -2.1951   21.4625 H   0  0  0  0  0  0  0  0  0  0  0  0
  1  2  1  0
  2  3  1  0
  3  4  1  0
  4  5  1  0
  5  6  2  0
  6  7  1  0
  7  8  2  0
  8  9  1  0
  9 10  2  0
 10 11  1  0
 11 12  2  0
 12 13  1  0
 13 14  2  0
  4 15  1  0
 15 16  2  0
 15 17  1  0
 17 18  1  1
 18 19  1  0
 19 20  1  0
 20 21  1  0
 21 22  1  0
 22 23  1  0
 23 24  1  0
 24 25  1  0
 25 26  1  0
 26 27  1  0
 27 28  1  0
 25 29  1  0
 19 30  1  0
 30 31  2  0
 30 32  1  0
 32 33  2  0
 33 34  1  0
 34 35  2  0
 35 36  1  0
 35 37  1  0
 37 38  2  0
 17  2  1  0
 29 22  1  0
 38 32  1  0
 14  5  1  0
 38 17  1  0
 14  9  1  0
 28 25  1  0
  1 39  1  0
  1 40  1  0
  1 41  1  0
  2 42  1  6
  3 43  1  0
  3 44  1  0
  6 45  1  0
  8 46  1  0
 10 47  1  0
 11 48  1  0
 12 49  1  0
 13 50  1  0
 18 51  1  0
 18 52  1  0
 20 53  1  0
 20 54  1  0
 21 55  1  0
 21 56  1  0
 22 57  1  1
 23 58  1  0
 23 59  1  0
 24 60  1  0
 24 61  1  0
 26 62  1  0
 26 63  1  0
 28 64  1  0
 28 65  1  0
 29 66  1  0
 29 67  1  0
 33 68  1  0
 34 69  1  0
 37 70  1  0
M  CHG  1  22   1
M  END
>  <RMSD>  (24) 
0.1817899992562468

$$$$

     RDKit          3D

 67 72  0  0  0  0  0  0  0  0999 V2000
    6.1921    4.0006   22.1089 C   0  0  0  0  0  0  0  0  0  0  0  0
    6.6767    2.9539   22.9838 N   0  0  0  0  0  0  0  0  0  0  0  0
    6.4128    2.9631   24.3063 C   0  0  0  0  0  0  0  0  0  0  0  0
    5.6999    3.7905   24.8596 O   0  0  0  0  0  0  0  0  0  0  0  0
    7.0746    1.8577   25.1412 C   0  0  0  0  0  0  0  0  0  0  0  0
    7.9257    0.9346   24.4205 N   0  0  0  0  0  0  0  0  0  0  0  0
    7.3920   -0.3568   24.0235 C   0  0  0  0  0  0  0  0  0  0  0  0
    8.0593   -0.9067   22.7294 C   0  0  2  0  0  0  0  0  0  0  0  0
    7.5970   -0.0467   21.5245 C   0  0  0  0  0  0  0  0  0  0  0  0
    8.0456    1.0296   21.1692 O   0  0  0  0  0  0  0  0  0  0  0  0
    6.5335   -0.6743   20.9253 N   0  0  0  0  0  0  0  0  0  0  0  0
    5.8666   -0.0807   19.8196 C   0  0  0  0  0  0  0  0  0  0  0  0
    6.3122   -0.3376   18.5473 C   0  0  0  0  0  0  0  0  0  0  0  0
    5.7708    0.1886   17.4201 N   0  0  0  0  0  0  0  0  0  0  0  0
    4.7597    1.0113   17.5733 C   0  0  0  0  0  0  0  0  0  0  0  0
    4.2018    1.3738   18.8340 C   0  0  0  0  0  0  0  0  0  0  0  0
    3.1190    2.2887   18.9430 C   0  0  0  0  0  0  0  0  0  0  0  0
    2.6090    2.6176   20.1689 C   0  0  0  0  0  0  0  0  0  0  0  0
    3.1462    2.0446   21.3429 C   0  0  0  0  0  0  0  0  0  0  0  0
    4.1949    1.1577   21.2623 C   0  0  0  0  0  0  0  0  0  0  0  0
    4.7604    0.8057   20.0040 C   0  0  0  0  0  0  0  0  0  0  0  0
    6.1885   -1.9487   21.5307 C   0  0  0  0  0  0  0  0  0  0  0  0
    7.4638   -2.2882   22.3180 C   0  0  2  0  0  0  0  0  0  0  0  0
    7.2311   -3.2954   23.4367 C   0  0  0  0  0  0  0  0  0  0  0  0
    6.6326   -4.4582   22.8766 O   0  0  0  0  0  0  0  0  0  0  0  0
    6.6108   -5.5774   23.7622 C   0  0  0  0  0  0  0  0  0  0  0  0
    6.1947   -6.8291   23.0907 C   0  0  0  0  0  0  0  0  0  0  0  0
    4.6814   -7.1505   23.2286 C   0  0  0  0  0  0  0  0  0  0  0  0
    4.7907   -7.1777   23.0483 C   0  0  0  0  0  0  0  0  0  0  0  0
    9.5624   -0.8438   22.9250 C   0  0  0  0  0  0  0  0  0  0  0  0
   10.4421   -1.7591   22.3310 C   0  0  0  0  0  0  0  0  0  0  0  0
   11.8104   -1.6062   22.4772 C   0  0  0  0  0  0  0  0  0  0  0  0
   12.8776   -2.7707   21.7433 Cl  0  0  0  0  0  0  0  0  0  0  0  0
   12.3612   -0.5401   23.1862 C   0  0  0  0  0  0  0  0  0  0  0  0
   11.5034    0.3673   23.7730 C   0  0  0  0  0  0  0  0  0  0  0  0
   10.1219    0.2114   23.6638 C   0  0  0  0  0  0  0  0  0  0  0  0
    9.2661    1.2142   24.3748 C   0  0  0  0  0  0  0  0  0  0  0  0
    9.7345    2.2259   24.8783 O   0  0  0  0  0  0  0  0  0  0  0  0
    6.8552    4.0421   21.2407 H   0  0  0  0  0  0  0  0  0  0  0  0
    6.2039    4.9643   22.6267 H   0  0  0  0  0  0  0  0  0  0  0  0
    5.1696    3.8027   21.7634 H   0  0  0  0  0  0  0  0  0  0  0  0
    7.3150    2.2716   22.5876 H   0  0  0  0  0  0  0  0  0  0  0  0
    7.6816    2.3595   25.9010 H   0  0  0  0  0  0  0  0  0  0  0  0
    6.2776    1.3136   25.6594 H   0  0  0  0  0  0  0  0  0  0  0  0
    7.5471   -1.0760   24.8397 H   0  0  0  0  0  0  0  0  0  0  0  0
    6.3144   -0.2339   23.8667 H   0  0  0  0  0  0  0  0  0  0  0  0
    7.1632   -1.0013   18.4060 H   0  0  0  0  0  0  0  0  0  0  0  0
    4.3254    1.4413   16.6698 H   0  0  0  0  0  0  0  0  0  0  0  0
    2.7171    2.7253   18.0326 H   0  0  0  0  0  0  0  0  0  0  0  0
    1.7946    3.3318   20.2526 H   0  0  0  0  0  0  0  0  0  0  0  0
    2.7571    2.3402   22.3147 H   0  0  0  0  0  0  0  0  0  0  0  0
    4.6053    0.7348   22.1748 H   0  0  0  0  0  0  0  0  0  0  0  0
    5.3155   -1.8633   22.1963 H   0  0  0  0  0  0  0  0  0  0  0  0
    5.9555   -2.6942   20.7678 H   0  0  0  0  0  0  0  0  0  0  0  0
    8.1474   -2.7371   21.5943 H   0  0  0  0  0  0  0  0  0  0  0  0
    6.5736   -2.8342   24.1975 H   0  0  0  0  0  0  0  0  0  0  0  0
    8.1862   -3.5453   23.9314 H   0  0  0  0  0  0  0  0  0  0  0  0
    7.6513   -5.7154   24.1376 H   0  0  0  0  0  0  0  0  0  0  0  0
    6.0428   -5.2875   24.6867 H   0  0  0  0  0  0  0  0  0  0  0  0
    5.9513   -6.7812   22.0461 H   0  0  0  0  0  0  0  0  0  0  0  0
    3.9538   -6.8298   22.1823 H   0  0  0  0  0  0  0  0  0  0  0  0
    4.2754   -8.3484   23.1297 H   0  0  0  0  0  0  0  0  0  0  0  0
    4.1441   -6.5486   24.6515 H   0  0  0  0  0  0  0  0  0  0  0  0
    7.0180   -7.5730   23.0368 H   0  0  0  0  0  0  0  0  0  0  0  0
   10.0826   -2.5949   21.7422 H   0  0  0  0  0  0  0  0  0  0  0  0
   13.4382   -0.4337   23.2690 H   0  0  0  0  0  0  0  0  0  0  0  0
   11.8782    1.2174   24.3330 H   0  0  0  0  0  0  0  0  0  0  0  0
  1  2  1  0
  2  3  1  0
  3  4  2  0
  3  5  1  0
  5  6  1  0
  6  7  1  0
  8  7  1  1
  8  9  1  0
  9 10  2  0
  9 11  1  0
 11 12  1  0
 12 13  2  0
 13 14  1  0
 14 15  2  0
 15 16  1  0
 16 17  2  0
 17 18  1  0
 18 19  2  0
 19 20  1  0
 20 21  2  0
 11 22  1  0
 22 23  1  0
 23 24  1  0
 24 25  1  0
 25 26  1  0
 26 27  1  0
 27 28  1  0
 28 29  1  0
  8 30  1  0
 30 31  2  0
 31 32  1  0
 32 33  1  0
 32 34  2  0
 34 35  1  0
 35 36  2  0
 36 37  1  0
 37 38  2  0
 37  6  1  0
 23  8  1  0
 29 27  1  0
 36 30  1  0
 21 12  1  0
 21 16  1  0
  1 39  1  0
  1 40  1  0
  1 41  1  0
  2 42  1  0
  5 43  1  0
  5 44  1  0
  7 45  1  0
  7 46  1  0
 13 47  1  0
 15 48  1  0
 17 49  1  0
 18 50  1  0
 19 51  1  0
 20 52  1  0
 22 53  1  0
 22 54  1  0
 23 55  1  6
 24 56  1  0
 24 57  1  0
 26 58  1  0
 26 59  1  0
 27 60  1  0
 28 61  1  0
 28 62  1  0
 29 63  1  0
 29 64  1  0
 31 65  1  0
 34 66  1  0
 35 67  1  0
M  END
>  <RMSD>  (25) 
0.17732865594382785

$$$$

     RDKit          3D

 70 75  0  0  0  0  0  0  0  0999 V2000
    6.2103    4.1019   22.3030 C   0  0  0  0  0  0  0  0  0  0  0  0
    6.8515    3.1936   23.2517 N   0  0  0  0  0  0  0  0  0  0  0  0
    6.0388    2.9666   24.4674 C   0  0  0  0  0  0  0  0  0  0  0  0
    6.6784    1.9183   25.3982 C   0  0  0  0  0  0  0  0  0  0  0  0
    7.5360    0.9788   24.6938 N   0  0  0  0  0  0  0  0  0  0  0  0
    7.0030   -0.3023   24.2828 C   0  0  0  0  0  0  0  0  0  0  0  0
    7.6919   -0.8766   23.0149 C   0  0  2  0  0  0  0  0  0  0  0  0
    7.3199   -0.0223   21.7808 C   0  0  0  0  0  0  0  0  0  0  0  0
    7.6488    1.1473   21.5898 O   0  0  0  0  0  0  0  0  0  0  0  0
    6.5019   -0.7266   20.9439 N   0  0  0  0  0  0  0  0  0  0  0  0
    5.8660   -0.0904   19.8290 C   0  0  0  0  0  0  0  0  0  0  0  0
    6.3008   -0.3505   18.5561 C   0  0  0  0  0  0  0  0  0  0  0  0
    5.7753    0.1975   17.4303 N   0  0  0  0  0  0  0  0  0  0  0  0
    4.7684    1.0300   17.5732 C   0  0  0  0  0  0  0  0  0  0  0  0
    4.2082    1.3876   18.8329 C   0  0  0  0  0  0  0  0  0  0  0  0
    3.1117    2.2873   18.9398 C   0  0  0  0  0  0  0  0  0  0  0  0
    2.5909    2.6033   20.1665 C   0  0  0  0  0  0  0  0  0  0  0  0
    3.1523    2.0456   21.3364 C   0  0  0  0  0  0  0  0  0  0  0  0
    4.2214    1.1893   21.2622 C   0  0  0  0  0  0  0  0  0  0  0  0
    4.7771    0.8255   20.0018 C   0  0  0  0  0  0  0  0  0  0  0  0
    6.0470   -1.9783   21.5316 C   0  0  0  0  0  0  0  0  0  0  0  0
    7.0692   -2.2642   22.6585 C   0  0  2  0  0  0  0  0  0  0  0  0
    6.4326   -3.0338   23.8449 C   0  0  0  0  0  0  0  0  0  0  0  0
    5.9296   -4.3029   23.4635 O   0  0  0  0  0  0  0  0  0  0  0  0
    6.7619   -5.3906   23.7967 C   0  0  0  0  0  0  0  0  0  0  0  0
    6.5293   -6.4755   22.7828 C   0  0  0  0  0  0  0  0  0  0  0  0
    7.3885   -7.5133   23.0975 F   0  0  0  0  0  0  0  0  0  0  0  0
    5.1171   -6.9733   22.4666 C   0  0  0  0  0  0  0  0  0  0  0  0
    5.2767   -6.6189   21.0812 O   0  0  0  0  0  0  0  0  0  0  0  0
    6.5631   -6.0276   21.3256 C   0  0  0  0  0  0  0  0  0  0  0  0
    9.1969   -0.8098   23.2473 C   0  0  0  0  0  0  0  0  0  0  0  0
   10.1023   -1.7361   22.7162 C   0  0  0  0  0  0  0  0  0  0  0  0
   11.4618   -1.5644   22.9198 C   0  0  0  0  0  0  0  0  0  0  0  0
   12.5698   -2.7421   22.2787 Cl  0  0  0  0  0  0  0  0  0  0  0  0
   11.9777   -0.4652   23.6038 C   0  0  0  0  0  0  0  0  0  0  0  0
   11.0944    0.4768   24.0889 C   0  0  0  0  0  0  0  0  0  0  0  0
    9.7225    0.3080   23.9206 C   0  0  0  0  0  0  0  0  0  0  0  0
    8.8174    1.3583   24.4684 C   0  0  0  0  0  0  0  0  0  0  0  0
    9.1946    2.5135   24.6837 O   0  0  0  0  0  0  0  0  0  0  0  0
    5.1781    3.7841   22.1308 H   0  0  0  0  0  0  0  0  0  0  0  0
    6.1927    5.1204   22.6999 H   0  0  0  0  0  0  0  0  0  0  0  0
    6.7289    4.0834   21.3442 H   0  0  0  0  0  0  0  0  0  0  0  0
    7.7687    3.5504   23.5590 H   0  0  0  0  0  0  0  0  0  0  0  0
    7.0502    2.2979   22.7733 H   0  0  0  0  0  0  0  0  0  0  0  0
    5.9251    3.9175   25.0034 H   0  0  0  0  0  0  0  0  0  0  0  0
    5.0297    2.6530   24.1682 H   0  0  0  0  0  0  0  0  0  0  0  0
    7.2983    2.4052   26.1560 H   0  0  0  0  0  0  0  0  0  0  0  0
    5.9023    1.3524   25.9251 H   0  0  0  0  0  0  0  0  0  0  0  0
    7.1325   -1.0141   25.1080 H   0  0  0  0  0  0  0  0  0  0  0  0
    5.9315   -0.1769   24.0750 H   0  0  0  0  0  0  0  0  0  0  0  0
    7.1382   -1.0285   18.3909 H   0  0  0  0  0  0  0  0  0  0  0  0
    4.3491    1.4711   16.6666 H   0  0  0  0  0  0  0  0  0  0  0  0
    2.7040    2.7219   18.0316 H   0  0  0  0  0  0  0  0  0  0  0  0
    1.7562    3.2929   20.2500 H   0  0  0  0  0  0  0  0  0  0  0  0
    2.7522    2.3236   22.3085 H   0  0  0  0  0  0  0  0  0  0  0  0
    4.6631    0.7881   22.1715 H   0  0  0  0  0  0  0  0  0  0  0  0
    5.0391   -1.8878   21.9672 H   0  0  0  0  0  0  0  0  0  0  0  0
    6.0217   -2.7616   20.7698 H   0  0  0  0  0  0  0  0  0  0  0  0
    7.8596   -2.8884   22.2329 H   0  0  0  0  0  0  0  0  0  0  0  0
    7.1610   -3.1610   24.6630 H   0  0  0  0  0  0  0  0  0  0  0  0
    5.5750   -2.4668   24.2378 H   0  0  0  0  0  0  0  0  0  0  0  0
    6.5713   -5.7828   24.8096 H   0  0  0  0  0  0  0  0  0  0  0  0
    7.8117   -5.0715   23.7439 H   0  0  0  0  0  0  0  0  0  0  0  0
    4.2992   -6.4174   22.9470 H   0  0  0  0  0  0  0  0  0  0  0  0
    5.0004   -8.0562   22.6042 H   0  0  0  0  0  0  0  0  0  0  0  0
    7.3864   -6.4515   20.7406 H   0  0  0  0  0  0  0  0  0  0  0  0
    6.5232   -4.9349   21.1990 H   0  0  0  0  0  0  0  0  0  0  0  0
    9.7740   -2.5736   22.1085 H   0  0  0  0  0  0  0  0  0  0  0  0
   13.0493   -0.3438   23.7197 H   0  0  0  0  0  0  0  0  0  0  0  0
   11.4459    1.3644   24.6026 H   0  0  0  0  0  0  0  0  0  0  0  0
  1  2  1  0
  2  3  1  0
  3  4  1  0
  4  5  1  0
  5  6  1  0
  7  6  1  1
  7  8  1  0
  8  9  2  0
  8 10  1  0
 10 11  1  0
 11 12  2  0
 12 13  1  0
 13 14  2  0
 14 15  1  0
 15 16  2  0
 16 17  1  0
 17 18  2  0
 18 19  1  0
 19 20  2  0
 10 21  1  0
 21 22  1  0
 22 23  1  0
 23 24  1  0
 24 25  1  0
 25 26  1  0
 26 27  1  0
 26 28  1  0
 28 29  1  0
 29 30  1  0
  7 31  1  0
 31 32  2  0
 32 33  1  0
 33 34  1  0
 33 35  2  0
 35 36  1  0
 36 37  2  0
 37 38  1  0
 38 39  2  0
 38  5  1  0
 22  7  1  0
 30 26  1  0
 37 31  1  0
 20 11  1  0
 20 15  1  0
  1 40  1  0
  1 41  1  0
  1 42  1  0
  2 43  1  0
  2 44  1  0
  3 45  1  0
  3 46  1  0
  4 47  1  0
  4 48  1  0
  6 49  1  0
  6 50  1  0
 12 51  1  0
 14 52  1  0
 16 53  1  0
 17 54  1  0
 18 55  1  0
 19 56  1  0
 21 57  1  0
 21 58  1  0
 22 59  1  6
 23 60  1  0
 23 61  1  0
 25 62  1  0
 25 63  1  0
 28 64  1  0
 28 65  1  0
 30 66  1  0
 30 67  1  0
 32 68  1  0
 35 69  1  0
 36 70  1  0
M  CHG  1   2   1
M  END
>  <RMSD>  (26) 
0.19148373548171335

$$$$

     RDKit          3D

 57 60  0  0  0  0  0  0  0  0999 V2000
    5.9744   -5.2955   26.7573 C   0  0  0  0  0  0  0  0  0  0  0  0
    6.2692   -5.3110   25.2436 C   0  0  0  0  0  0  0  0  0  0  0  0
    7.3281   -6.3930   24.9524 C   0  0  0  0  0  0  0  0  0  0  0  0
    5.0330   -5.6653   24.5109 C   0  0  0  0  0  0  0  0  0  0  0  0
    4.0766   -5.9094   23.9024 N   0  0  0  0  0  0  0  0  0  0  0  0
    6.6844   -3.9266   24.7150 C   0  0  0  0  0  0  0  0  0  0  0  0
    6.0737   -2.7620   25.1925 C   0  0  0  0  0  0  0  0  0  0  0  0
    6.3999   -1.5151   24.6716 C   0  0  0  0  0  0  0  0  0  0  0  0
    7.3099   -1.4125   23.6192 C   0  0  0  0  0  0  0  0  0  0  0  0
    7.6107   -0.1352   23.0620 N   0  0  0  0  0  0  0  0  0  0  0  0
    8.4438    0.7850   23.8247 C   0  0  0  0  0  0  0  0  0  0  0  0
    9.9396    0.7010   23.5271 C   0  0  0  0  0  0  0  0  0  0  0  0
   10.7572    1.8032   23.7881 C   0  0  0  0  0  0  0  0  0  0  0  0
   12.1217    1.7516   23.5108 C   0  0  0  0  0  0  0  0  0  0  0  0
   12.6911    0.6067   22.9601 C   0  0  0  0  0  0  0  0  0  0  0  0
   11.8775   -0.4940   22.7276 C   0  0  0  0  0  0  0  0  0  0  0  0
   12.5555   -1.9479   22.0386 Cl  0  0  0  0  0  0  0  0  0  0  0  0
   10.5217   -0.4648   23.0288 C   0  0  0  0  0  0  0  0  0  0  0  0
    7.3225    0.1870   21.7513 C   0  0  0  0  0  0  0  0  0  0  0  0
    7.7563    1.1879   21.2129 O   0  0  0  0  0  0  0  0  0  0  0  0
    6.4055   -0.7999   21.0195 C   0  0  0  0  0  0  0  0  0  0  0  0
    5.7548   -0.1866   19.8301 C   0  0  0  0  0  0  0  0  0  0  0  0
    6.2321   -0.4294   18.5766 C   0  0  0  0  0  0  0  0  0  0  0  0
    5.7582    0.1500   17.4418 N   0  0  0  0  0  0  0  0  0  0  0  0
    4.7729    1.0133   17.5775 C   0  0  0  0  0  0  0  0  0  0  0  0
    4.1871    1.3688   18.8240 C   0  0  0  0  0  0  0  0  0  0  0  0
    3.1413    2.3245   18.9393 C   0  0  0  0  0  0  0  0  0  0  0  0
    2.6317    2.6304   20.1732 C   0  0  0  0  0  0  0  0  0  0  0  0
    3.1341    2.0071   21.3391 C   0  0  0  0  0  0  0  0  0  0  0  0
    4.1411    1.0837   21.2491 C   0  0  0  0  0  0  0  0  0  0  0  0
    4.6943    0.7476   19.9875 C   0  0  0  0  0  0  0  0  0  0  0  0
    7.8794   -2.5777   23.1008 C   0  0  0  0  0  0  0  0  0  0  0  0
    7.6107   -3.8074   23.6805 C   0  0  0  0  0  0  0  0  0  0  0  0
    5.7945   -6.3140   27.1201 H   0  0  0  0  0  0  0  0  0  0  0  0
    6.8379   -4.8855   27.2882 H   0  0  0  0  0  0  0  0  0  0  0  0
    5.0987   -4.6872   27.0010 H   0  0  0  0  0  0  0  0  0  0  0  0
    7.4559   -6.5568   23.8790 H   0  0  0  0  0  0  0  0  0  0  0  0
    7.0328   -7.3446   25.4045 H   0  0  0  0  0  0  0  0  0  0  0  0
    8.2904   -6.0913   25.3762 H   0  0  0  0  0  0  0  0  0  0  0  0
    5.3383   -2.8013   25.9935 H   0  0  0  0  0  0  0  0  0  0  0  0
    5.9252   -0.6126   25.0560 H   0  0  0  0  0  0  0  0  0  0  0  0
    8.0965    1.8030   23.6198 H   0  0  0  0  0  0  0  0  0  0  0  0
    8.2719    0.5749   24.8894 H   0  0  0  0  0  0  0  0  0  0  0  0
   10.3238    2.7083   24.2162 H   0  0  0  0  0  0  0  0  0  0  0  0
   12.7495    2.6139   23.7273 H   0  0  0  0  0  0  0  0  0  0  0  0
   13.7494    0.5601   22.7218 H   0  0  0  0  0  0  0  0  0  0  0  0
    9.9413   -1.3697   22.8884 H   0  0  0  0  0  0  0  0  0  0  0  0
    7.0141   -1.6561   20.7077 H   0  0  0  0  0  0  0  0  0  0  0  0
    5.6702   -1.1994   21.7243 H   0  0  0  0  0  0  0  0  0  0  0  0
    7.0578   -1.1355   18.4500 H   0  0  0  0  0  0  0  0  0  0  0  0
    4.4001    1.4859   16.6694 H   0  0  0  0  0  0  0  0  0  0  0  0
    2.7577    2.8208   18.0488 H   0  0  0  0  0  0  0  0  0  0  0  0
    1.8416    3.3681   20.2673 H   0  0  0  0  0  0  0  0  0  0  0  0
    2.7304    2.2694   22.3144 H   0  0  0  0  0  0  0  0  0  0  0  0
    4.5486    0.6111   22.1399 H   0  0  0  0  0  0  0  0  0  0  0  0
    8.5275   -2.5538   22.2266 H   0  0  0  0  0  0  0  0  0  0  0  0
    8.1772   -4.6642   23.3285 H   0  0  0  0  0  0  0  0  0  0  0  0
  1  2  1  0
  2  3  1  0
  2  4  1  0
  4  5  3  0
  2  6  1  0
  6  7  2  0
  7  8  1  0
  8  9  2  0
  9 10  1  0
 10 11  1  0
 11 12  1  0
 12 13  2  0
 13 14  1  0
 14 15  2  0
 15 16  1  0
 16 17  1  0
 16 18  2  0
 10 19  1  0
 19 20  2  0
 19 21  1  0
 21 22  1  0
 22 23  2  0
 23 24  1  0
 24 25  2  0
 25 26  1  0
 26 27  2  0
 27 28  1  0
 28 29  2  0
 29 30  1  0
 30 31  2  0
  9 32  1  0
 32 33  2  0
 33  6  1  0
 18 12  1  0
 31 22  1  0
 31 26  1  0
  1 34  1  0
  1 35  1  0
  1 36  1  0
  3 37  1  0
  3 38  1  0
  3 39  1  0
  7 40  1  0
  8 41  1  0
 11 42  1  0
 11 43  1  0
 13 44  1  0
 14 45  1  0
 15 46  1  0
 18 47  1  0
 21 48  1  0
 21 49  1  0
 23 50  1  0
 25 51  1  0
 27 52  1  0
 28 53  1  0
 29 54  1  0
 30 55  1  0
 32 56  1  0
 33 57  1  0
M  END
>  <RMSD>  (27) 
0.04593427969633772

$$$$

     RDKit          3D

 67 71  0  0  0  0  0  0  0  0999 V2000
    6.1227    4.2318   22.3418 C   0  0  0  0  0  0  0  0  0  0  0  0
    6.7298    3.2103   23.1726 N   0  0  0  0  0  0  0  0  0  0  0  0
    6.2322    2.9775   24.4068 C   0  0  0  0  0  0  0  0  0  0  0  0
    5.3542    3.6624   24.9168 O   0  0  0  0  0  0  0  0  0  0  0  0
    6.8090    1.7995   25.2030 C   0  0  0  0  0  0  0  0  0  0  0  0
    7.6941    0.9080   24.4867 N   0  0  0  0  0  0  0  0  0  0  0  0
    7.2025   -0.4031   24.1040 C   0  0  0  0  0  0  0  0  0  0  0  0
    7.9045   -0.9313   22.8277 C   0  0  2  0  0  0  0  0  0  0  0  0
    7.5176   -0.0350   21.6236 C   0  0  0  0  0  0  0  0  0  0  0  0
    7.9765    1.0513   21.3276 O   0  0  0  0  0  0  0  0  0  0  0  0
    6.5154   -0.6683   20.9253 N   0  0  0  0  0  0  0  0  0  0  0  0
    5.8742   -0.0636   19.8169 C   0  0  0  0  0  0  0  0  0  0  0  0
    6.3064   -0.3441   18.5479 C   0  0  0  0  0  0  0  0  0  0  0  0
    5.7687    0.1826   17.4178 N   0  0  0  0  0  0  0  0  0  0  0  0
    4.7640    1.0145   17.5705 C   0  0  0  0  0  0  0  0  0  0  0  0
    4.2114    1.3857   18.8312 C   0  0  0  0  0  0  0  0  0  0  0  0
    3.1250    2.2940   18.9432 C   0  0  0  0  0  0  0  0  0  0  0  0
    2.6098    2.6127   20.1693 C   0  0  0  0  0  0  0  0  0  0  0  0
    3.1493    2.0417   21.3444 C   0  0  0  0  0  0  0  0  0  0  0  0
    4.2075    1.1705   21.2645 C   0  0  0  0  0  0  0  0  0  0  0  0
    4.7726    0.8257   20.0023 C   0  0  0  0  0  0  0  0  0  0  0  0
    6.0992   -1.9291   21.4930 C   0  0  0  0  0  0  0  0  0  0  0  0
    7.3008   -2.2948   22.3835 C   0  0  2  0  0  0  0  0  0  0  0  0
    6.9095   -3.2688   23.4933 C   0  0  0  0  0  0  0  0  0  0  0  0
    6.1098   -4.7123   22.7892 S   0  0  0  0  0  0  0  0  0  0  0  0
    6.7904   -5.1063   21.5650 O   0  0  0  0  0  0  0  0  0  0  0  0
    4.6729   -4.4596   22.7488 O   0  0  0  0  0  0  0  0  0  0  0  0
    6.4554   -5.8141   24.0115 N   0  0  0  0  0  0  0  0  0  0  0  0
    5.5792   -5.6932   25.1787 C   0  0  0  0  0  0  0  0  0  0  0  0
    6.6568   -7.1886   23.5603 C   0  0  0  0  0  0  0  0  0  0  0  0
    9.3996   -0.8783   23.0845 C   0  0  0  0  0  0  0  0  0  0  0  0
   10.3073   -1.8026   22.5517 C   0  0  0  0  0  0  0  0  0  0  0  0
   11.6626   -1.6048   22.7311 C   0  0  0  0  0  0  0  0  0  0  0  0
   12.5216   -2.4955   22.2074 F   0  0  0  0  0  0  0  0  0  0  0  0
   12.1846   -0.5173   23.4202 C   0  0  0  0  0  0  0  0  0  0  0  0
   11.2958    0.3886   23.9579 C   0  0  0  0  0  0  0  0  0  0  0  0
    9.9218    0.2062   23.8105 C   0  0  0  0  0  0  0  0  0  0  0  0
    9.0289    1.2109   24.4686 C   0  0  0  0  0  0  0  0  0  0  0  0
    9.4652    2.2487   24.9509 O   0  0  0  0  0  0  0  0  0  0  0  0
    5.0774    3.9809   22.1198 H   0  0  0  0  0  0  0  0  0  0  0  0
    6.1472    5.2101   22.8337 H   0  0  0  0  0  0  0  0  0  0  0  0
    6.6806    4.2890   21.4040 H   0  0  0  0  0  0  0  0  0  0  0  0
    7.3874    2.5709   22.7396 H   0  0  0  0  0  0  0  0  0  0  0  0
    7.3363    2.2124   26.0709 H   0  0  0  0  0  0  0  0  0  0  0  0
    5.9510    1.2336   25.5823 H   0  0  0  0  0  0  0  0  0  0  0  0
    6.1214   -0.3232   23.9292 H   0  0  0  0  0  0  0  0  0  0  0  0
    7.3739   -1.1170   24.9227 H   0  0  0  0  0  0  0  0  0  0  0  0
    7.1426   -1.0278   18.4110 H   0  0  0  0  0  0  0  0  0  0  0  0
    4.3284    1.4423   16.6664 H   0  0  0  0  0  0  0  0  0  0  0  0
    2.7193    2.7300   18.0341 H   0  0  0  0  0  0  0  0  0  0  0  0
    1.7835    3.3120   20.2543 H   0  0  0  0  0  0  0  0  0  0  0  0
    2.7436    2.3177   22.3157 H   0  0  0  0  0  0  0  0  0  0  0  0
    4.6150    0.7421   22.1763 H   0  0  0  0  0  0  0  0  0  0  0  0
    5.1596   -1.8254   22.0639 H   0  0  0  0  0  0  0  0  0  0  0  0
    5.9240   -2.6745   20.7161 H   0  0  0  0  0  0  0  0  0  0  0  0
    8.0303   -2.7987   21.7412 H   0  0  0  0  0  0  0  0  0  0  0  0
    6.1584   -2.8344   24.1667 H   0  0  0  0  0  0  0  0  0  0  0  0
    7.7747   -3.6212   24.0684 H   0  0  0  0  0  0  0  0  0  0  0  0
    5.7930   -4.7739   25.7444 H   0  0  0  0  0  0  0  0  0  0  0  0
    5.8007   -6.5481   25.8268 H   0  0  0  0  0  0  0  0  0  0  0  0
    4.5198   -5.6997   24.8844 H   0  0  0  0  0  0  0  0  0  0  0  0
    7.3233   -7.1853   22.6992 H   0  0  0  0  0  0  0  0  0  0  0  0
    5.7099   -7.6833   23.3036 H   0  0  0  0  0  0  0  0  0  0  0  0
    7.1443   -7.7384   24.3693 H   0  0  0  0  0  0  0  0  0  0  0  0
    9.9953   -2.6768   21.9910 H   0  0  0  0  0  0  0  0  0  0  0  0
   13.2575   -0.4000   23.5229 H   0  0  0  0  0  0  0  0  0  0  0  0
   11.6390    1.2594   24.5048 H   0  0  0  0  0  0  0  0  0  0  0  0
  1  2  1  0
  2  3  1  0
  3  4  2  0
  3  5  1  0
  5  6  1  0
  6  7  1  0
  8  7  1  1
  8  9  1  0
  9 10  2  0
  9 11  1  0
 11 12  1  0
 12 13  2  0
 13 14  1  0
 14 15  2  0
 15 16  1  0
 16 17  2  0
 17 18  1  0
 18 19  2  0
 19 20  1  0
 20 21  2  0
 11 22  1  0
 22 23  1  0
 23 24  1  0
 24 25  1  0
 25 26  2  0
 25 27  2  0
 25 28  1  0
 28 29  1  0
 28 30  1  0
  8 31  1  0
 31 32  2  0
 32 33  1  0
 33 34  1  0
 33 35  2  0
 35 36  1  0
 36 37  2  0
 37 38  1  0
 38 39  2  0
 38  6  1  0
 23  8  1  0
 37 31  1  0
 21 12  1  0
 21 16  1  0
  1 40  1  0
  1 41  1  0
  1 42  1  0
  2 43  1  0
  5 44  1  0
  5 45  1  0
  7 46  1  0
  7 47  1  0
 13 48  1  0
 15 49  1  0
 17 50  1  0
 18 51  1  0
 19 52  1  0
 20 53  1  0
 22 54  1  0
 22 55  1  0
 23 56  1  6
 24 57  1  0
 24 58  1  0
 29 59  1  0
 29 60  1  0
 29 61  1  0
 30 62  1  0
 30 63  1  0
 30 64  1  0
 32 65  1  0
 35 66  1  0
 36 67  1  0
M  END
>  <RMSD>  (28) 
0.17583676526718892

$$$$

     RDKit          3D

 65 69  0  0  0  0  0  0  0  0999 V2000
    3.4194   -4.0122   24.1782 C   0  0  0  0  0  0  0  0  0  0  0  0
    3.0264   -4.2563   25.6354 C   0  0  0  0  0  0  0  0  0  0  0  0
    4.1560   -4.0201   26.6059 C   0  0  0  0  0  0  0  0  0  0  0  0
    4.5023   -4.7952   27.4666 O   0  0  0  0  0  0  0  0  0  0  0  0
    4.8608   -2.7088   26.5546 N   0  0  2  0  0  0  0  0  0  0  0  0
    3.9555   -1.4810   26.7300 C   0  0  0  0  0  0  0  0  0  0  0  0
    4.7762   -0.2250   26.5425 C   0  0  0  0  0  0  0  0  0  0  0  0
    5.3546   -0.1886   25.1313 C   0  0  0  0  0  0  0  0  0  0  0  0
    6.2046   -1.3975   24.8209 C   0  0  0  0  0  0  0  0  0  0  0  0
    7.1791   -1.3775   23.7956 C   0  0  0  0  0  0  0  0  0  0  0  0
    7.5563   -0.1389   23.1776 N   0  0  0  0  0  0  0  0  0  0  0  0
    8.3320    0.8146   23.9729 C   0  0  0  0  0  0  0  0  0  0  0  0
    9.8410    0.7418   23.7712 C   0  0  0  0  0  0  0  0  0  0  0  0
   10.6433    1.8510   24.0429 C   0  0  0  0  0  0  0  0  0  0  0  0
   12.0200    1.7891   23.8430 C   0  0  0  0  0  0  0  0  0  0  0  0
   12.6214    0.6305   23.3671 C   0  0  0  0  0  0  0  0  0  0  0  0
   11.8212   -0.4795   23.1441 C   0  0  0  0  0  0  0  0  0  0  0  0
   12.5341   -1.9593   22.5703 Cl  0  0  0  0  0  0  0  0  0  0  0  0
   10.4527   -0.4422   23.3679 C   0  0  0  0  0  0  0  0  0  0  0  0
    7.3334    0.1620   21.8430 C   0  0  0  0  0  0  0  0  0  0  0  0
    7.7850    1.1627   21.3264 O   0  0  0  0  0  0  0  0  0  0  0  0
    6.4602   -0.8213   21.0380 C   0  0  0  0  0  0  0  0  0  0  0  0
    5.7958   -0.1858   19.8425 C   0  0  0  0  0  0  0  0  0  0  0  0
    6.2260   -0.4259   18.5626 C   0  0  0  0  0  0  0  0  0  0  0  0
    5.7488    0.1558   17.4287 N   0  0  0  0  0  0  0  0  0  0  0  0
    4.7767    1.0251   17.5822 C   0  0  0  0  0  0  0  0  0  0  0  0
    4.2082    1.3608   18.8418 C   0  0  0  0  0  0  0  0  0  0  0  0
    3.1574    2.3086   18.9504 C   0  0  0  0  0  0  0  0  0  0  0  0
    2.6306    2.6279   20.1697 C   0  0  0  0  0  0  0  0  0  0  0  0
    3.1274    2.0116   21.3408 C   0  0  0  0  0  0  0  0  0  0  0  0
    4.1440    1.0892   21.2628 C   0  0  0  0  0  0  0  0  0  0  0  0
    4.7227    0.7403   20.0084 C   0  0  0  0  0  0  0  0  0  0  0  0
    7.7803   -2.5629   23.3858 C   0  0  0  0  0  0  0  0  0  0  0  0
    7.5514   -3.7359   24.0950 C   0  0  0  0  0  0  0  0  0  0  0  0
    6.6758   -3.7491   25.1718 C   0  0  0  0  0  0  0  0  0  0  0  0
    5.9569   -2.5971   25.4820 C   0  0  0  0  0  0  0  0  0  0  0  0
    4.2890   -4.6184   23.8969 H   0  0  0  0  0  0  0  0  0  0  0  0
    3.6953   -2.9633   24.0404 H   0  0  0  0  0  0  0  0  0  0  0  0
    2.5917   -4.2438   23.5034 H   0  0  0  0  0  0  0  0  0  0  0  0
    2.2165   -3.5814   25.9371 H   0  0  0  0  0  0  0  0  0  0  0  0
    2.6733   -5.2752   25.8107 H   0  0  0  0  0  0  0  0  0  0  0  0
    5.3925   -2.8092   27.4579 H   0  0  0  0  0  0  0  0  0  0  0  0
    3.4852   -1.5026   27.7172 H   0  0  0  0  0  0  0  0  0  0  0  0
    3.1565   -1.5107   25.9860 H   0  0  0  0  0  0  0  0  0  0  0  0
    4.1350    0.6507   26.7040 H   0  0  0  0  0  0  0  0  0  0  0  0
    5.5719   -0.1828   27.2971 H   0  0  0  0  0  0  0  0  0  0  0  0
    4.5222   -0.1768   24.4083 H   0  0  0  0  0  0  0  0  0  0  0  0
    5.9195    0.7311   24.9601 H   0  0  0  0  0  0  0  0  0  0  0  0
    7.9919    1.8352   23.7596 H   0  0  0  0  0  0  0  0  0  0  0  0
    8.1004    0.6071   25.0247 H   0  0  0  0  0  0  0  0  0  0  0  0
   10.1974    2.7671   24.4283 H   0  0  0  0  0  0  0  0  0  0  0  0
   12.6361    2.6552   24.0625 H   0  0  0  0  0  0  0  0  0  0  0  0
   13.6902    0.5796   23.1866 H   0  0  0  0  0  0  0  0  0  0  0  0
    9.8847   -1.3568   23.2532 H   0  0  0  0  0  0  0  0  0  0  0  0
    5.7273   -1.2596   21.7243 H   0  0  0  0  0  0  0  0  0  0  0  0
    7.1092   -1.6421   20.7037 H   0  0  0  0  0  0  0  0  0  0  0  0
    7.0213   -1.1492   18.3790 H   0  0  0  0  0  0  0  0  0  0  0  0
    4.3816    1.5116   16.6836 H   0  0  0  0  0  0  0  0  0  0  0  0
    2.7960    2.7772   18.0395 H   0  0  0  0  0  0  0  0  0  0  0  0
    1.8314    3.3585   20.2461 H   0  0  0  0  0  0  0  0  0  0  0  0
    2.7012    2.2838   22.3064 H   0  0  0  0  0  0  0  0  0  0  0  0
    4.5145    0.6397   22.1836 H   0  0  0  0  0  0  0  0  0  0  0  0
    8.4560   -2.5795   22.5324 H   0  0  0  0  0  0  0  0  0  0  0  0
    8.0696   -4.6421   23.8103 H   0  0  0  0  0  0  0  0  0  0  0  0
    6.5457   -4.6643   25.7380 H   0  0  0  0  0  0  0  0  0  0  0  0
  1  2  1  0
  2  3  1  0
  3  4  2  0
  3  5  1  0
  5  6  1  0
  6  7  1  0
  7  8  1  0
  8  9  1  0
  9 10  2  0
 10 11  1  0
 11 12  1  0
 12 13  1  0
 13 14  2  0
 14 15  1  0
 15 16  2  0
 16 17  1  0
 17 18  1  0
 17 19  2  0
 11 20  1  0
 20 21  2  0
 20 22  1  0
 22 23  1  0
 23 24  2  0
 24 25  1  0
 25 26  2  0
 26 27  1  0
 27 28  2  0
 28 29  1  0
 29 30  2  0
 30 31  1  0
 31 32  2  0
 10 33  1  0
 33 34  2  0
 34 35  1  0
 35 36  2  0
 36  5  1  0
 36  9  1  0
 19 13  1  0
 32 23  1  0
 32 27  1  0
  1 37  1  0
  1 38  1  0
  1 39  1  0
  2 40  1  0
  2 41  1  0
  5 42  1  1
  6 43  1  0
  6 44  1  0
  7 45  1  0
  7 46  1  0
  8 47  1  0
  8 48  1  0
 12 49  1  0
 12 50  1  0
 14 51  1  0
 15 52  1  0
 16 53  1  0
 19 54  1  0
 22 55  1  0
 22 56  1  0
 24 57  1  0
 26 58  1  0
 28 59  1  0
 29 60  1  0
 30 61  1  0
 31 62  1  0
 33 63  1  0
 34 64  1  0
 35 65  1  0
M  CHG  1   5   1
M  END
>  <RMSD>  (29) 
0.03533679427987664

$$$$

     RDKit          3D

 72 77  0  0  0  0  0  0  0  0999 V2000
    4.5406    4.1877   24.0474 C   0  0  0  0  0  0  0  0  0  0  0  0
    5.4801    5.0260   23.1993 C   0  0  2  0  0  0  0  0  0  0  0  0
    5.0387    5.1439   21.7461 C   0  0  0  0  0  0  0  0  0  0  0  0
    5.8905    6.0283   21.0400 O   0  0  0  0  0  0  0  0  0  0  0  0
    7.2144    5.5326   21.0174 C   0  0  0  0  0  0  0  0  0  0  0  0
    7.8118    5.4417   22.4173 C   0  0  1  0  0  0  0  0  0  0  0  0
    7.9907    6.8359   23.0037 C   0  0  0  0  0  0  0  0  0  0  0  0
    6.9344    4.5577   23.2934 N   0  0  0  0  0  0  0  0  0  0  0  0
    7.1469    3.0724   23.1041 C   0  0  0  0  0  0  0  0  0  0  0  0
    7.1948    2.3091   24.4453 C   0  0  0  0  0  0  0  0  0  0  0  0
    7.9300    1.0619   24.3208 N   0  0  0  0  0  0  0  0  0  0  0  0
    7.2914   -0.1788   23.9196 C   0  0  0  0  0  0  0  0  0  0  0  0
    8.0180   -0.8551   22.7156 C   0  0  2  0  0  0  0  0  0  0  0  0
    7.6816   -0.1249   21.3933 C   0  0  0  0  0  0  0  0  0  0  0  0
    8.3004    0.7617   20.8413 O   0  0  0  0  0  0  0  0  0  0  0  0
    6.5129   -0.6777   20.9136 N   0  0  0  0  0  0  0  0  0  0  0  0
    5.8564   -0.0904   19.8098 C   0  0  0  0  0  0  0  0  0  0  0  0
    6.3088   -0.3469   18.5397 C   0  0  0  0  0  0  0  0  0  0  0  0
    5.7714    0.1870   17.4161 N   0  0  0  0  0  0  0  0  0  0  0  0
    4.7629    1.0132   17.5768 C   0  0  0  0  0  0  0  0  0  0  0  0
    4.2057    1.3756   18.8376 C   0  0  0  0  0  0  0  0  0  0  0  0
    3.1289    2.2951   18.9437 C   0  0  0  0  0  0  0  0  0  0  0  0
    2.6079    2.6128   20.1694 C   0  0  0  0  0  0  0  0  0  0  0  0
    3.1543    2.0522   21.3458 C   0  0  0  0  0  0  0  0  0  0  0  0
    4.2120    1.1745   21.2728 C   0  0  0  0  0  0  0  0  0  0  0  0
    4.7588    0.8012   20.0076 C   0  0  0  0  0  0  0  0  0  0  0  0
    6.1323   -1.9172   21.5704 C   0  0  0  0  0  0  0  0  0  0  0  0
    7.3990   -2.2498   22.3705 C   0  0  2  0  0  0  0  0  0  0  0  0
    7.1920   -3.2391   23.5066 C   0  0  0  0  0  0  0  0  0  0  0  0
    9.5057   -0.8353   22.9824 C   0  0  0  0  0  0  0  0  0  0  0  0
   10.3649   -1.6153   22.1986 C   0  0  0  0  0  0  0  0  0  0  0  0
   11.7311   -1.5517   22.4002 C   0  0  0  0  0  0  0  0  0  0  0  0
   12.7677   -2.4839   21.3632 Cl  0  0  0  0  0  0  0  0  0  0  0  0
   12.2926   -0.7662   23.4063 C   0  0  0  0  0  0  0  0  0  0  0  0
   11.4490    0.0104   24.1758 C   0  0  0  0  0  0  0  0  0  0  0  0
   10.0757    0.0163   23.9371 C   0  0  0  0  0  0  0  0  0  0  0  0
    9.2646    1.0702   24.6272 C   0  0  0  0  0  0  0  0  0  0  0  0
    9.7862    1.9018   25.3562 O   0  0  0  0  0  0  0  0  0  0  0  0
    3.5497    4.6524   24.0557 H   0  0  0  0  0  0  0  0  0  0  0  0
    4.4472    3.1687   23.6568 H   0  0  0  0  0  0  0  0  0  0  0  0
    4.9007    4.1387   25.0805 H   0  0  0  0  0  0  0  0  0  0  0  0
    5.4794    6.0390   23.6026 H   0  0  0  0  0  0  0  0  0  0  0  0
    4.0286    5.5724   21.7141 H   0  0  0  0  0  0  0  0  0  0  0  0
    5.0064    4.1523   21.2619 H   0  0  0  0  0  0  0  0  0  0  0  0
    7.2305    4.5382   20.5636 H   0  0  0  0  0  0  0  0  0  0  0  0
    7.8100    6.2098   20.3984 H   0  0  0  0  0  0  0  0  0  0  0  0
    8.7845    4.9412   22.3618 H   0  0  0  0  0  0  0  0  0  0  0  0
    7.0656    7.4141   22.9266 H   0  0  0  0  0  0  0  0  0  0  0  0
    8.3183    6.7912   24.0478 H   0  0  0  0  0  0  0  0  0  0  0  0
    8.7599    7.3508   22.4231 H   0  0  0  0  0  0  0  0  0  0  0  0
    7.2269    4.7388   24.2690 H   0  0  0  0  0  0  0  0  0  0  0  0
    8.0967    2.9308   22.5738 H   0  0  0  0  0  0  0  0  0  0  0  0
    6.3679    2.6600   22.4564 H   0  0  0  0  0  0  0  0  0  0  0  0
    7.7282    2.9083   25.1853 H   0  0  0  0  0  0  0  0  0  0  0  0
    6.1891    2.0959   24.8380 H   0  0  0  0  0  0  0  0  0  0  0  0
    7.3027   -0.8816   24.7684 H   0  0  0  0  0  0  0  0  0  0  0  0
    6.2485    0.0495   23.6728 H   0  0  0  0  0  0  0  0  0  0  0  0
    7.1581   -1.0123   18.4028 H   0  0  0  0  0  0  0  0  0  0  0  0
    4.3325    1.4526   16.6772 H   0  0  0  0  0  0  0  0  0  0  0  0
    2.7310    2.7351   18.0321 H   0  0  0  0  0  0  0  0  0  0  0  0
    1.7693    3.2999   20.2448 H   0  0  0  0  0  0  0  0  0  0  0  0
    2.7347    2.3280   22.3117 H   0  0  0  0  0  0  0  0  0  0  0  0
    4.6312    0.7676   22.1896 H   0  0  0  0  0  0  0  0  0  0  0  0
    5.8968   -2.6979   20.8382 H   0  0  0  0  0  0  0  0  0  0  0  0
    5.2510   -1.8031   22.2233 H   0  0  0  0  0  0  0  0  0  0  0  0
    8.0742   -2.7120   21.6417 H   0  0  0  0  0  0  0  0  0  0  0  0
    6.8840   -4.2092   23.0976 H   0  0  0  0  0  0  0  0  0  0  0  0
    6.4149   -2.8966   24.2010 H   0  0  0  0  0  0  0  0  0  0  0  0
    8.1208   -3.3832   24.0692 H   0  0  0  0  0  0  0  0  0  0  0  0
    9.9843   -2.2475   21.4026 H   0  0  0  0  0  0  0  0  0  0  0  0
   13.3691   -0.7322   23.5438 H   0  0  0  0  0  0  0  0  0  0  0  0
   11.8315    0.6599   24.9549 H   0  0  0  0  0  0  0  0  0  0  0  0
  1  2  1  0
  2  3  1  0
  3  4  1  0
  4  5  1  0
  5  6  1  0
  6  7  1  0
  6  8  1  0
  8  9  1  0
  9 10  1  0
 10 11  1  0
 11 12  1  0
 13 12  1  1
 13 14  1  0
 14 15  2  0
 14 16  1  0
 16 17  1  0
 17 18  2  0
 18 19  1  0
 19 20  2  0
 20 21  1  0
 21 22  2  0
 22 23  1  0
 23 24  2  0
 24 25  1  0
 25 26  2  0
 16 27  1  0
 27 28  1  0
 28 29  1  0
 13 30  1  0
 30 31  2  0
 31 32  1  0
 32 33  1  0
 32 34  2  0
 34 35  1  0
 35 36  2  0
 36 37  1  0
 37 38  2  0
  8  2  1  0
 37 11  1  0
 28 13  1  0
 36 30  1  0
 26 17  1  0
 26 21  1  0
  1 39  1  0
  1 40  1  0
  1 41  1  0
  2 42  1  1
  3 43  1  0
  3 44  1  0
  5 45  1  0
  5 46  1  0
  6 47  1  6
  7 48  1  0
  7 49  1  0
  7 50  1  0
  8 51  1  0
  9 52  1  0
  9 53  1  0
 10 54  1  0
 10 55  1  0
 12 56  1  0
 12 57  1  0
 18 58  1  0
 20 59  1  0
 22 60  1  0
 23 61  1  0
 24 62  1  0
 25 63  1  0
 27 64  1  0
 27 65  1  0
 28 66  1  6
 29 67  1  0
 29 68  1  0
 29 69  1  0
 31 70  1  0
 34 71  1  0
 35 72  1  0
M  CHG  1   8   1
M  END
>  <RMSD>  (30) 
0.17969461138992687

$$$$

     RDKit          3D

 55 60  0  0  0  0  0  0  0  0999 V2000
    7.0685   -3.2828   23.5074 C   0  0  0  0  0  0  0  0  0  0  0  0
    7.3571   -2.2804   22.3972 C   0  0  1  0  0  0  0  0  0  0  0  0
    6.1404   -1.9251   21.5322 C   0  0  0  0  0  0  0  0  0  0  0  0
    6.5303   -0.6591   20.9408 N   0  0  0  0  0  0  0  0  0  0  0  0
    5.8816   -0.0568   19.8299 C   0  0  0  0  0  0  0  0  0  0  0  0
    6.3053   -0.3453   18.5585 C   0  0  0  0  0  0  0  0  0  0  0  0
    5.7643    0.1748   17.4277 N   0  0  0  0  0  0  0  0  0  0  0  0
    4.7620    1.0116   17.5680 C   0  0  0  0  0  0  0  0  0  0  0  0
    4.2010    1.3823   18.8249 C   0  0  0  0  0  0  0  0  0  0  0  0
    3.1166    2.2992   18.9401 C   0  0  0  0  0  0  0  0  0  0  0  0
    2.6108    2.6210   20.1694 C   0  0  0  0  0  0  0  0  0  0  0  0
    3.1503    2.0410   21.3414 C   0  0  0  0  0  0  0  0  0  0  0  0
    4.2044    1.1622   21.2605 C   0  0  0  0  0  0  0  0  0  0  0  0
    4.7634    0.8216   19.9989 C   0  0  0  0  0  0  0  0  0  0  0  0
    7.5468   -0.0219   21.6251 C   0  0  0  0  0  0  0  0  0  0  0  0
    8.0172    1.0454   21.3006 O   0  0  0  0  0  0  0  0  0  0  0  0
    7.9281   -0.9076   22.8409 C   0  0  1  0  0  0  0  0  0  0  0  0
    7.2129   -0.3803   24.1122 C   0  0  0  0  0  0  0  0  0  0  0  0
    7.6765    0.9452   24.4745 N   0  0  0  0  0  0  0  0  0  0  0  0
    6.7812    1.8349   25.1800 C   0  0  0  0  0  0  0  0  0  0  0  0
    6.4024    3.0597   24.4025 C   0  0  0  0  0  0  0  0  0  0  0  0
    6.2338    4.2525   24.8665 N   0  0  0  0  0  0  0  0  0  0  0  0
    5.8611    4.9937   23.7554 C   0  0  0  0  0  0  0  0  0  0  0  0
    5.8054    4.1939   22.6697 C   0  0  0  0  0  0  0  0  0  0  0  0
    6.1482    2.9323   23.0840 O   0  0  0  0  0  0  0  0  0  0  0  0
    8.9996    1.2862   24.4226 C   0  0  0  0  0  0  0  0  0  0  0  0
    9.4040    2.3549   24.8605 O   0  0  0  0  0  0  0  0  0  0  0  0
    9.9218    0.2626   23.8209 C   0  0  0  0  0  0  0  0  0  0  0  0
   11.3000    0.4366   23.9739 C   0  0  0  0  0  0  0  0  0  0  0  0
   12.1937   -0.4711   23.4362 C   0  0  0  0  0  0  0  0  0  0  0  0
   11.6727   -1.5650   22.7507 C   0  0  0  0  0  0  0  0  0  0  0  0
   12.5222   -2.4544   22.2085 F   0  0  0  0  0  0  0  0  0  0  0  0
   10.3177   -1.7687   22.5836 C   0  0  0  0  0  0  0  0  0  0  0  0
    9.4149   -0.8410   23.1139 C   0  0  0  0  0  0  0  0  0  0  0  0
    6.7878   -4.2606   23.1033 H   0  0  0  0  0  0  0  0  0  0  0  0
    6.2478   -2.9417   24.1458 H   0  0  0  0  0  0  0  0  0  0  0  0
    7.9385   -3.4274   24.1566 H   0  0  0  0  0  0  0  0  0  0  0  0
    8.0838   -2.7287   21.7157 H   0  0  0  0  0  0  0  0  0  0  0  0
    5.2314   -1.8492   22.1547 H   0  0  0  0  0  0  0  0  0  0  0  0
    5.9458   -2.6678   20.7553 H   0  0  0  0  0  0  0  0  0  0  0  0
    7.1408   -1.0262   18.4081 H   0  0  0  0  0  0  0  0  0  0  0  0
    4.3360    1.4390   16.6576 H   0  0  0  0  0  0  0  0  0  0  0  0
    2.7083    2.7446   18.0343 H   0  0  0  0  0  0  0  0  0  0  0  0
    1.7869    3.3263   20.2576 H   0  0  0  0  0  0  0  0  0  0  0  0
    2.7433    2.3074   22.3133 H   0  0  0  0  0  0  0  0  0  0  0  0
    4.6314    0.7242   22.1603 H   0  0  0  0  0  0  0  0  0  0  0  0
    6.1356   -0.3140   23.9234 H   0  0  0  0  0  0  0  0  0  0  0  0
    7.3778   -1.0753   24.9502 H   0  0  0  0  0  0  0  0  0  0  0  0
    7.2317    2.1736   26.1150 H   0  0  0  0  0  0  0  0  0  0  0  0
    5.8746    1.2772   25.4463 H   0  0  0  0  0  0  0  0  0  0  0  0
    5.6603    6.0510   23.8253 H   0  0  0  0  0  0  0  0  0  0  0  0
    5.5651    4.3411   21.6245 H   0  0  0  0  0  0  0  0  0  0  0  0
   11.6640    1.2973   24.5231 H   0  0  0  0  0  0  0  0  0  0  0  0
   13.2718   -0.3502   23.5212 H   0  0  0  0  0  0  0  0  0  0  0  0
    9.9858   -2.6498   22.0434 H   0  0  0  0  0  0  0  0  0  0  0  0
  1  2  1  0
  2  3  1  0
  3  4  1  0
  4  5  1  0
  5  6  2  0
  6  7  1  0
  7  8  2  0
  8  9  1  0
  9 10  2  0
 10 11  1  0
 11 12  2  0
 12 13  1  0
 13 14  2  0
  4 15  1  0
 15 16  2  0
 15 17  1  0
 17 18  1  1
 18 19  1  0
 19 20  1  0
 20 21  1  0
 21 22  2  0
 22 23  1  0
 23 24  2  0
 24 25  1  0
 19 26  1  0
 26 27  2  0
 26 28  1  0
 28 29  2  0
 29 30  1  0
 30 31  2  0
 31 32  1  0
 31 33  1  0
 33 34  2  0
 17  2  1  0
 25 21  1  0
 34 28  1  0
 14  5  1  0
 34 17  1  0
 14  9  1  0
  1 35  1  0
  1 36  1  0
  1 37  1  0
  2 38  1  6
  3 39  1  0
  3 40  1  0
  6 41  1  0
  8 42  1  0
 10 43  1  0
 11 44  1  0
 12 45  1  0
 13 46  1  0
 18 47  1  0
 18 48  1  0
 20 49  1  0
 20 50  1  0
 23 51  1  0
 24 52  1  0
 29 53  1  0
 30 54  1  0
 33 55  1  0
M  END
>  <RMSD>  (31) 
0.17212323641996433

$$$$

     RDKit          3D

 66 71  0  0  0  0  0  0  0  0999 V2000
    6.1121    4.2702   22.3564 C   0  0  0  0  0  0  0  0  0  0  0  0
    6.7075    3.2591   23.2007 N   0  0  0  0  0  0  0  0  0  0  0  0
    6.2128    3.0268   24.4346 C   0  0  0  0  0  0  0  0  0  0  0  0
    5.3339    3.7052   24.9478 O   0  0  0  0  0  0  0  0  0  0  0  0
    6.7708    1.8221   25.2001 C   0  0  0  0  0  0  0  0  0  0  0  0
    7.6690    0.9426   24.4811 N   0  0  0  0  0  0  0  0  0  0  0  0
    7.2037   -0.3847   24.1164 C   0  0  0  0  0  0  0  0  0  0  0  0
    7.9181   -0.9160   22.8485 C   0  0  2  0  0  0  0  0  0  0  0  0
    7.5383   -0.0298   21.6357 C   0  0  0  0  0  0  0  0  0  0  0  0
    8.0049    1.0516   21.3312 O   0  0  0  0  0  0  0  0  0  0  0  0
    6.5402   -0.6710   20.9362 N   0  0  0  0  0  0  0  0  0  0  0  0
    5.8854   -0.0590   19.8317 C   0  0  0  0  0  0  0  0  0  0  0  0
    6.3055   -0.3452   18.5582 C   0  0  0  0  0  0  0  0  0  0  0  0
    5.7647    0.1755   17.4278 N   0  0  0  0  0  0  0  0  0  0  0  0
    4.7626    1.0131   17.5674 C   0  0  0  0  0  0  0  0  0  0  0  0
    4.2014    1.3821   18.8256 C   0  0  0  0  0  0  0  0  0  0  0  0
    3.1156    2.2970   18.9378 C   0  0  0  0  0  0  0  0  0  0  0  0
    2.6051    2.6170   20.1680 C   0  0  0  0  0  0  0  0  0  0  0  0
    3.1437    2.0389   21.3421 C   0  0  0  0  0  0  0  0  0  0  0  0
    4.2018    1.1671   21.2600 C   0  0  0  0  0  0  0  0  0  0  0  0
    4.7674    0.8220   19.9999 C   0  0  0  0  0  0  0  0  0  0  0  0
    6.1334   -1.9327   21.5330 C   0  0  0  0  0  0  0  0  0  0  0  0
    7.3583   -2.2952   22.3897 C   0  0  2  0  0  0  0  0  0  0  0  0
    7.1866   -3.3913   23.4752 C   0  0  0  0  0  0  0  0  0  0  0  0
    5.7939   -3.6009   24.0269 C   0  0  0  0  0  0  0  0  0  0  0  0
    4.8468   -4.2884   23.2620 C   0  0  0  0  0  0  0  0  0  0  0  0
    3.5462   -4.4700   23.7149 C   0  0  0  0  0  0  0  0  0  0  0  0
    3.1634   -3.9704   24.9543 C   0  0  0  0  0  0  0  0  0  0  0  0
    4.0984   -3.3001   25.7357 C   0  0  0  0  0  0  0  0  0  0  0  0
    5.4010   -3.1212   25.2761 C   0  0  0  0  0  0  0  0  0  0  0  0
    9.4062   -0.8475   23.1187 C   0  0  0  0  0  0  0  0  0  0  0  0
   10.3115   -1.7743   22.5879 C   0  0  0  0  0  0  0  0  0  0  0  0
   11.6730   -1.5800   22.7427 C   0  0  0  0  0  0  0  0  0  0  0  0
   12.7718   -2.7190   22.0147 Cl  0  0  0  0  0  0  0  0  0  0  0  0
   12.1820   -0.4829   23.4411 C   0  0  0  0  0  0  0  0  0  0  0  0
   11.2902    0.4242   23.9871 C   0  0  0  0  0  0  0  0  0  0  0  0
    9.9132    0.2496   23.8359 C   0  0  0  0  0  0  0  0  0  0  0  0
    8.9964    1.2717   24.4477 C   0  0  0  0  0  0  0  0  0  0  0  0
    9.3956    2.3481   24.8726 O   0  0  0  0  0  0  0  0  0  0  0  0
    5.0687    4.0212   22.1351 H   0  0  0  0  0  0  0  0  0  0  0  0
    6.6653    4.2963   21.4165 H   0  0  0  0  0  0  0  0  0  0  0  0
    6.1364    5.2599   22.8232 H   0  0  0  0  0  0  0  0  0  0  0  0
    7.5417    2.7898   22.8747 H   0  0  0  0  0  0  0  0  0  0  0  0
    5.9043    1.2393   25.5262 H   0  0  0  0  0  0  0  0  0  0  0  0
    7.2606    2.1926   26.1076 H   0  0  0  0  0  0  0  0  0  0  0  0
    7.3759   -1.0814   24.9476 H   0  0  0  0  0  0  0  0  0  0  0  0
    6.1271   -0.3325   23.9366 H   0  0  0  0  0  0  0  0  0  0  0  0
    7.1393   -1.0263   18.4058 H   0  0  0  0  0  0  0  0  0  0  0  0
    4.3386    1.4416   16.6569 H   0  0  0  0  0  0  0  0  0  0  0  0
    2.7094    2.7447   18.0313 H   0  0  0  0  0  0  0  0  0  0  0  0
    1.7848    3.3250   20.2603 H   0  0  0  0  0  0  0  0  0  0  0  0
    2.7479    2.3130   22.3190 H   0  0  0  0  0  0  0  0  0  0  0  0
    4.6235    0.7322   22.1632 H   0  0  0  0  0  0  0  0  0  0  0  0
    5.2212   -1.8371   22.1454 H   0  0  0  0  0  0  0  0  0  0  0  0
    5.9298   -2.6688   20.7527 H   0  0  0  0  0  0  0  0  0  0  0  0
    8.0911   -2.6700   21.6688 H   0  0  0  0  0  0  0  0  0  0  0  0
    7.5299   -4.3470   23.0587 H   0  0  0  0  0  0  0  0  0  0  0  0
    7.8814   -3.1791   24.2962 H   0  0  0  0  0  0  0  0  0  0  0  0
    5.1369   -4.6610   22.2828 H   0  0  0  0  0  0  0  0  0  0  0  0
    2.8282   -4.9935   23.0928 H   0  0  0  0  0  0  0  0  0  0  0  0
    2.1491   -4.1138   25.3126 H   0  0  0  0  0  0  0  0  0  0  0  0
    3.8187   -2.9204   26.7136 H   0  0  0  0  0  0  0  0  0  0  0  0
    6.1237   -2.6060   25.9046 H   0  0  0  0  0  0  0  0  0  0  0  0
    9.9604   -2.6535   22.0576 H   0  0  0  0  0  0  0  0  0  0  0  0
   13.2570   -0.3491   23.5342 H   0  0  0  0  0  0  0  0  0  0  0  0
   11.6477    1.2879   24.5389 H   0  0  0  0  0  0  0  0  0  0  0  0
  1  2  1  0
  2  3  1  0
  3  4  2  0
  3  5  1  0
  5  6  1  0
  6  7  1  0
  8  7  1  1
  8  9  1  0
  9 10  2  0
  9 11  1  0
 11 12  1  0
 12 13  2  0
 13 14  1  0
 14 15  2  0
 15 16  1  0
 16 17  2  0
 17 18  1  0
 18 19  2  0
 19 20  1  0
 20 21  2  0
 11 22  1  0
 22 23  1  0
 23 24  1  0
 24 25  1  0
 25 26  2  0
 26 27  1  0
 27 28  2  0
 28 29  1  0
 29 30  2  0
  8 31  1  0
 31 32  2  0
 32 33  1  0
 33 34  1  0
 33 35  2  0
 35 36  1  0
 36 37  2  0
 37 38  1  0
 38 39  2  0
 38  6  1  0
 23  8  1  0
 30 25  1  0
 37 31  1  0
 21 12  1  0
 21 16  1  0
  1 40  1  0
  1 41  1  0
  1 42  1  0
  2 43  1  0
  5 44  1  0
  5 45  1  0
  7 46  1  0
  7 47  1  0
 13 48  1  0
 15 49  1  0
 17 50  1  0
 18 51  1  0
 19 52  1  0
 20 53  1  0
 22 54  1  0
 22 55  1  0
 23 56  1  6
 24 57  1  0
 24 58  1  0
 26 59  1  0
 27 60  1  0
 28 61  1  0
 29 62  1  0
 30 63  1  0
 32 64  1  0
 35 65  1  0
 36 66  1  0
M  END
>  <RMSD>  (32) 
0.1731573874939561

$$$$

     RDKit          3D

 59 64  0  0  0  0  0  0  0  0999 V2000
    7.0676   -3.2869   23.5056 C   0  0  0  0  0  0  0  0  0  0  0  0
    7.3568   -2.2833   22.3967 C   0  0  1  0  0  0  0  0  0  0  0  0
    6.1402   -1.9278   21.5307 C   0  0  0  0  0  0  0  0  0  0  0  0
    6.5356   -0.6633   20.9383 N   0  0  0  0  0  0  0  0  0  0  0  0
    5.8854   -0.0567   19.8301 C   0  0  0  0  0  0  0  0  0  0  0  0
    6.3045   -0.3465   18.5581 C   0  0  0  0  0  0  0  0  0  0  0  0
    5.7627    0.1732   17.4267 N   0  0  0  0  0  0  0  0  0  0  0  0
    4.7614    1.0115   17.5697 C   0  0  0  0  0  0  0  0  0  0  0  0
    4.2022    1.3835   18.8261 C   0  0  0  0  0  0  0  0  0  0  0  0
    3.1180    2.2997   18.9409 C   0  0  0  0  0  0  0  0  0  0  0  0
    2.6084    2.6205   20.1686 C   0  0  0  0  0  0  0  0  0  0  0  0
    3.1444    2.0344   21.3385 C   0  0  0  0  0  0  0  0  0  0  0  0
    4.2072    1.1693   21.2614 C   0  0  0  0  0  0  0  0  0  0  0  0
    4.7690    0.8251   20.0021 C   0  0  0  0  0  0  0  0  0  0  0  0
    7.5475   -0.0282   21.6258 C   0  0  0  0  0  0  0  0  0  0  0  0
    8.0204    1.0421   21.3097 O   0  0  0  0  0  0  0  0  0  0  0  0
    7.9295   -0.9090   22.8420 C   0  0  1  0  0  0  0  0  0  0  0  0
    7.2205   -0.3799   24.1168 C   0  0  0  0  0  0  0  0  0  0  0  0
    7.7040    0.9283   24.5132 N   0  0  0  0  0  0  0  0  0  0  0  0
    6.7774    1.8198   25.1880 C   0  0  0  0  0  0  0  0  0  0  0  0
    6.0926    2.7935   24.2718 C   0  0  0  0  0  0  0  0  0  0  0  0
    4.7942    3.3202   24.3877 C   0  0  0  0  0  0  0  0  0  0  0  0
    4.5238    4.1894   23.4159 N   0  0  0  0  0  0  0  0  0  0  0  0
    5.6420    4.2255   22.6807 N   0  0  0  0  0  0  0  0  0  0  0  0
    5.7013    4.9744   21.4538 C   0  0  0  0  0  0  0  0  0  0  0  0
    6.6034    3.4009   23.1516 C   0  0  0  0  0  0  0  0  0  0  0  0
    9.0208    1.2827   24.4314 C   0  0  0  0  0  0  0  0  0  0  0  0
    9.4280    2.3599   24.8418 O   0  0  0  0  0  0  0  0  0  0  0  0
    9.9311    0.2552   23.8162 C   0  0  0  0  0  0  0  0  0  0  0  0
   11.3082    0.4266   23.9674 C   0  0  0  0  0  0  0  0  0  0  0  0
   12.1986   -0.4820   23.4287 C   0  0  0  0  0  0  0  0  0  0  0  0
   11.6728   -1.5743   22.7435 C   0  0  0  0  0  0  0  0  0  0  0  0
   12.5213   -2.4644   22.2009 F   0  0  0  0  0  0  0  0  0  0  0  0
   10.3172   -1.7751   22.5780 C   0  0  0  0  0  0  0  0  0  0  0  0
    9.4168   -0.8449   23.1085 C   0  0  0  0  0  0  0  0  0  0  0  0
    6.7852   -4.2643   23.1006 H   0  0  0  0  0  0  0  0  0  0  0  0
    6.2473   -2.9446   24.1446 H   0  0  0  0  0  0  0  0  0  0  0  0
    7.9385   -3.4327   24.1535 H   0  0  0  0  0  0  0  0  0  0  0  0
    8.0822   -2.7321   21.7138 H   0  0  0  0  0  0  0  0  0  0  0  0
    5.2309   -1.8495   22.1533 H   0  0  0  0  0  0  0  0  0  0  0  0
    5.9427   -2.6701   20.7530 H   0  0  0  0  0  0  0  0  0  0  0  0
    7.1380   -1.0294   18.4068 H   0  0  0  0  0  0  0  0  0  0  0  0
    4.3338    1.4401   16.6609 H   0  0  0  0  0  0  0  0  0  0  0  0
    2.7100    2.7456   18.0355 H   0  0  0  0  0  0  0  0  0  0  0  0
    1.7865    3.3290   20.2568 H   0  0  0  0  0  0  0  0  0  0  0  0
    2.7390    2.3026   22.3095 H   0  0  0  0  0  0  0  0  0  0  0  0
    4.6307    0.7292   22.1612 H   0  0  0  0  0  0  0  0  0  0  0  0
    6.1433   -0.3033   23.9342 H   0  0  0  0  0  0  0  0  0  0  0  0
    7.3773   -1.0825   24.9476 H   0  0  0  0  0  0  0  0  0  0  0  0
    6.0258    1.2054   25.6999 H   0  0  0  0  0  0  0  0  0  0  0  0
    7.3385    2.3525   25.9631 H   0  0  0  0  0  0  0  0  0  0  0  0
    4.0531    3.0793   25.1413 H   0  0  0  0  0  0  0  0  0  0  0  0
    4.9811    5.7877   21.5008 H   0  0  0  0  0  0  0  0  0  0  0  0
    6.7050    5.3847   21.3395 H   0  0  0  0  0  0  0  0  0  0  0  0
    5.4788    4.3460   20.5854 H   0  0  0  0  0  0  0  0  0  0  0  0
    7.5703    3.3054   22.6629 H   0  0  0  0  0  0  0  0  0  0  0  0
   11.6680    1.2883   24.5178 H   0  0  0  0  0  0  0  0  0  0  0  0
   13.2761   -0.3619   23.5132 H   0  0  0  0  0  0  0  0  0  0  0  0
    9.9850   -2.6568   22.0378 H   0  0  0  0  0  0  0  0  0  0  0  0
  1  2  1  0
  2  3  1  0
  3  4  1  0
  4  5  1  0
  5  6  2  0
  6  7  1  0
  7  8  2  0
  8  9  1  0
  9 10  2  0
 10 11  1  0
 11 12  2  0
 12 13  1  0
 13 14  2  0
  4 15  1  0
 15 16  2  0
 15 17  1  0
 17 18  1  1
 18 19  1  0
 19 20  1  0
 20 21  1  0
 21 22  1  0
 22 23  2  0
 23 24  1  0
 24 25  1  0
 24 26  1  0
 19 27  1  0
 27 28  2  0
 27 29  1  0
 29 30  2  0
 30 31  1  0
 31 32  2  0
 32 33  1  0
 32 34  1  0
 34 35  2  0
 17  2  1  0
 26 21  2  0
 35 29  1  0
 14  5  1  0
 35 17  1  0
 14  9  1  0
  1 36  1  0
  1 37  1  0
  1 38  1  0
  2 39  1  6
  3 40  1  0
  3 41  1  0
  6 42  1  0
  8 43  1  0
 10 44  1  0
 11 45  1  0
 12 46  1  0
 13 47  1  0
 18 48  1  0
 18 49  1  0
 20 50  1  0
 20 51  1  0
 22 52  1  0
 25 53  1  0
 25 54  1  0
 25 55  1  0
 26 56  1  0
 30 57  1  0
 31 58  1  0
 34 59  1  0
M  END
>  <RMSD>  (33) 
0.17184980950560094

$$$$

     RDKit          3D

 63 68  0  0  0  0  0  0  0  0999 V2000
    6.1318    4.1841   22.3389 C   0  0  0  0  0  0  0  0  0  0  0  0
    6.7148    3.1394   23.1564 N   0  0  0  0  0  0  0  0  0  0  0  0
    6.2353    2.9483   24.4025 C   0  0  0  0  0  0  0  0  0  0  0  0
    5.3674    3.6563   24.9005 O   0  0  0  0  0  0  0  0  0  0  0  0
    6.8308    1.8000   25.2255 C   0  0  0  0  0  0  0  0  0  0  0  0
    7.7071    0.9016   24.5079 N   0  0  0  0  0  0  0  0  0  0  0  0
    7.2067   -0.3959   24.1151 C   0  0  0  0  0  0  0  0  0  0  0  0
    7.8911   -0.9390   22.8339 C   0  0  2  0  0  0  0  0  0  0  0  0
    7.5068   -0.0453   21.6289 C   0  0  0  0  0  0  0  0  0  0  0  0
    7.9349    1.0584   21.3490 O   0  0  0  0  0  0  0  0  0  0  0  0
    6.5243   -0.6851   20.9173 N   0  0  0  0  0  0  0  0  0  0  0  0
    5.8792   -0.0605   19.8201 C   0  0  0  0  0  0  0  0  0  0  0  0
    6.3074   -0.3399   18.5491 C   0  0  0  0  0  0  0  0  0  0  0  0
    5.7662    0.1812   17.4201 N   0  0  0  0  0  0  0  0  0  0  0  0
    4.7619    1.0133   17.5722 C   0  0  0  0  0  0  0  0  0  0  0  0
    4.2107    1.3877   18.8332 C   0  0  0  0  0  0  0  0  0  0  0  0
    3.1220    2.2968   18.9407 C   0  0  0  0  0  0  0  0  0  0  0  0
    2.6074    2.6143   20.1687 C   0  0  0  0  0  0  0  0  0  0  0  0
    3.1466    2.0428   21.3455 C   0  0  0  0  0  0  0  0  0  0  0  0
    4.2065    1.1710   21.2681 C   0  0  0  0  0  0  0  0  0  0  0  0
    4.7756    0.8296   20.0057 C   0  0  0  0  0  0  0  0  0  0  0  0
    6.0744   -1.9277   21.5024 C   0  0  0  0  0  0  0  0  0  0  0  0
    7.2346   -2.2980   22.4392 C   0  0  2  0  0  0  0  0  0  0  0  0
    6.7587   -3.1554   23.6244 C   0  0  0  0  0  0  0  0  0  0  0  0
    6.3508   -4.4926   23.2242 N   0  0  0  0  0  0  0  0  0  0  0  0
    5.1939   -4.9076   22.6451 C   0  0  0  0  0  0  0  0  0  0  0  0
    5.3854   -6.2165   22.2577 C   0  0  0  0  0  0  0  0  0  0  0  0
    6.7173   -6.4947   22.6292 C   0  0  0  0  0  0  0  0  0  0  0  0
    7.2847   -5.4441   23.1986 N   0  0  0  0  0  0  0  0  0  0  0  0
    9.3908   -0.8962   23.0817 C   0  0  0  0  0  0  0  0  0  0  0  0
   10.2914   -1.8258   22.5423 C   0  0  0  0  0  0  0  0  0  0  0  0
   11.6561   -1.6521   22.7249 C   0  0  0  0  0  0  0  0  0  0  0  0
   12.7660   -2.8153   22.0521 Cl  0  0  0  0  0  0  0  0  0  0  0  0
   12.1748   -0.5614   23.4250 C   0  0  0  0  0  0  0  0  0  0  0  0
   11.2941    0.3510   23.9684 C   0  0  0  0  0  0  0  0  0  0  0  0
    9.9206    0.1810   23.8178 C   0  0  0  0  0  0  0  0  0  0  0  0
    9.0428    1.1809   24.5093 C   0  0  0  0  0  0  0  0  0  0  0  0
    9.4832    2.1888   25.0478 O   0  0  0  0  0  0  0  0  0  0  0  0
    5.0856    3.9521   22.1033 H   0  0  0  0  0  0  0  0  0  0  0  0
    6.6990    4.2579   21.4081 H   0  0  0  0  0  0  0  0  0  0  0  0
    6.1590    5.1499   22.8571 H   0  0  0  0  0  0  0  0  0  0  0  0
    7.2962    2.4400   22.6981 H   0  0  0  0  0  0  0  0  0  0  0  0
    5.9891    1.2357   25.6367 H   0  0  0  0  0  0  0  0  0  0  0  0
    7.3746    2.2365   26.0719 H   0  0  0  0  0  0  0  0  0  0  0  0
    6.1301   -0.2914   23.9432 H   0  0  0  0  0  0  0  0  0  0  0  0
    7.3691   -1.1162   24.9282 H   0  0  0  0  0  0  0  0  0  0  0  0
    7.1411   -1.0248   18.4090 H   0  0  0  0  0  0  0  0  0  0  0  0
    4.3332    1.4385   16.6643 H   0  0  0  0  0  0  0  0  0  0  0  0
    2.7179    2.7316   18.0284 H   0  0  0  0  0  0  0  0  0  0  0  0
    1.7789    3.3117   20.2509 H   0  0  0  0  0  0  0  0  0  0  0  0
    2.7431    2.3194   22.3186 H   0  0  0  0  0  0  0  0  0  0  0  0
    4.6148    0.7401   22.1795 H   0  0  0  0  0  0  0  0  0  0  0  0
    5.1241   -1.8160   22.0551 H   0  0  0  0  0  0  0  0  0  0  0  0
    5.9017   -2.6704   20.7230 H   0  0  0  0  0  0  0  0  0  0  0  0
    7.9492   -2.8780   21.8486 H   0  0  0  0  0  0  0  0  0  0  0  0
    7.5817   -3.2746   24.3326 H   0  0  0  0  0  0  0  0  0  0  0  0
    5.9220   -2.6737   24.1432 H   0  0  0  0  0  0  0  0  0  0  0  0
    4.3152   -4.2709   22.5771 H   0  0  0  0  0  0  0  0  0  0  0  0
    4.6987   -6.8971   21.7711 H   0  0  0  0  0  0  0  0  0  0  0  0
    7.3263   -7.3860   22.5102 H   0  0  0  0  0  0  0  0  0  0  0  0
    9.9412   -2.6880   21.9826 H   0  0  0  0  0  0  0  0  0  0  0  0
   13.2467   -0.4340   23.5398 H   0  0  0  0  0  0  0  0  0  0  0  0
   11.6373    1.2180   24.5245 H   0  0  0  0  0  0  0  0  0  0  0  0
  1  2  1  0
  2  3  1  0
  3  4  2  0
  3  5  1  0
  5  6  1  0
  6  7  1  0
  8  7  1  1
  8  9  1  0
  9 10  2  0
  9 11  1  0
 11 12  1  0
 12 13  2  0
 13 14  1  0
 14 15  2  0
 15 16  1  0
 16 17  2  0
 17 18  1  0
 18 19  2  0
 19 20  1  0
 20 21  2  0
 11 22  1  0
 22 23  1  0
 23 24  1  0
 24 25  1  0
 25 26  1  0
 26 27  2  0
 27 28  1  0
 28 29  2  0
  8 30  1  0
 30 31  2  0
 31 32  1  0
 32 33  1  0
 32 34  2  0
 34 35  1  0
 35 36  2  0
 36 37  1  0
 37 38  2  0
 37  6  1  0
 23  8  1  0
 29 25  1  0
 36 30  1  0
 21 12  1  0
 21 16  1  0
  1 39  1  0
  1 40  1  0
  1 41  1  0
  2 42  1  0
  5 43  1  0
  5 44  1  0
  7 45  1  0
  7 46  1  0
 13 47  1  0
 15 48  1  0
 17 49  1  0
 18 50  1  0
 19 51  1  0
 20 52  1  0
 22 53  1  0
 22 54  1  0
 23 55  1  6
 24 56  1  0
 24 57  1  0
 26 58  1  0
 27 59  1  0
 28 60  1  0
 31 61  1  0
 34 62  1  0
 35 63  1  0
M  END
>  <RMSD>  (34) 
0.17823259629428898

$$$$

     RDKit          3D

 64 70  0  0  0  0  0  0  0  0999 V2000
    9.6656    1.6412   25.6187 O   0  0  0  0  0  0  0  0  0  0  0  0
    9.1963    0.8643   24.8029 C   0  0  0  0  0  0  0  0  0  0  0  0
   10.0417   -0.0775   24.0037 C   0  0  0  0  0  0  0  0  0  0  0  0
   11.4206   -0.0069   24.1909 C   0  0  0  0  0  0  0  0  0  0  0  0
   12.2733   -0.7275   23.3797 C   0  0  0  0  0  0  0  0  0  0  0  0
   11.7185   -1.5203   22.3767 C   0  0  0  0  0  0  0  0  0  0  0  0
   12.7671   -2.4257   21.3260 Cl  0  0  0  0  0  0  0  0  0  0  0  0
   10.3531   -1.6083   22.1849 C   0  0  0  0  0  0  0  0  0  0  0  0
    9.4791   -0.9048   23.0202 C   0  0  0  0  0  0  0  0  0  0  0  0
    7.9906   -0.9371   22.7454 C   0  0  1  0  0  0  0  0  0  0  0  0
    7.2518   -0.3832   23.9898 C   0  0  0  0  0  0  0  0  0  0  0  0
    7.8646    0.8450   24.4675 N   0  0  0  0  0  0  0  0  0  0  0  0
    7.1035    2.0653   24.6359 C   0  0  0  0  0  0  0  0  0  0  0  0
    7.2849    3.0826   23.5370 C   0  0  0  0  0  0  0  0  0  0  0  0
    8.0701    4.1043   23.5353 N   0  0  0  0  0  0  0  0  0  0  0  0
    7.7808    4.8351   22.3881 N   0  0  0  0  0  0  0  0  0  0  0  0
    6.8279    4.2010   21.8043 C   0  0  0  0  0  0  0  0  0  0  0  0
    6.4659    3.0706   22.4592 O   0  0  0  0  0  0  0  0  0  0  0  0
    7.6183   -0.0819   21.5108 C   0  0  0  0  0  0  0  0  0  0  0  0
    8.1620    0.9197   21.0995 O   0  0  0  0  0  0  0  0  0  0  0  0
    6.5105   -0.6658   20.9301 N   0  0  0  0  0  0  0  0  0  0  0  0
    5.8613   -0.0804   19.8175 C   0  0  0  0  0  0  0  0  0  0  0  0
    6.3070   -0.3433   18.5484 C   0  0  0  0  0  0  0  0  0  0  0  0
    5.7744    0.1903   17.4185 N   0  0  0  0  0  0  0  0  0  0  0  0
    4.7647    1.0151   17.5706 C   0  0  0  0  0  0  0  0  0  0  0  0
    4.2076    1.3805   18.8316 C   0  0  0  0  0  0  0  0  0  0  0  0
    3.1250    2.2930   18.9447 C   0  0  0  0  0  0  0  0  0  0  0  0
    2.6157    2.6192   20.1701 C   0  0  0  0  0  0  0  0  0  0  0  0
    3.1587    2.0514   21.3427 C   0  0  0  0  0  0  0  0  0  0  0  0
    4.2068    1.1673   21.2634 C   0  0  0  0  0  0  0  0  0  0  0  0
    4.7596    0.8123   20.0008 C   0  0  0  0  0  0  0  0  0  0  0  0
    6.1397   -1.9382   21.5109 C   0  0  0  0  0  0  0  0  0  0  0  0
    7.4002   -2.3098   22.3072 C   0  0  2  0  0  0  0  0  0  0  0  0
    7.1755   -3.3347   23.4275 C   0  0  0  0  0  0  0  0  0  0  0  0
    6.9040   -4.6785   22.9672 N   0  0  0  0  0  0  0  0  0  0  0  0
    5.7114   -5.1067   22.4740 C   0  0  0  0  0  0  0  0  0  0  0  0
    4.4715   -4.5089   22.7652 C   0  0  0  0  0  0  0  0  0  0  0  0
    3.3610   -5.0680   22.1644 C   0  0  0  0  0  0  0  0  0  0  0  0
    3.4106   -6.1256   21.3465 N   0  0  0  0  0  0  0  0  0  0  0  0
    4.6295   -6.6193   21.1750 C   0  0  0  0  0  0  0  0  0  0  0  0
    5.7736   -6.1938   21.6899 N   0  0  0  0  0  0  0  0  0  0  0  0
   11.7960    0.6565   24.9621 H   0  0  0  0  0  0  0  0  0  0  0  0
   13.3501   -0.6590   23.4879 H   0  0  0  0  0  0  0  0  0  0  0  0
    9.9818   -2.2215   21.3726 H   0  0  0  0  0  0  0  0  0  0  0  0
    7.2654   -1.1495   24.7761 H   0  0  0  0  0  0  0  0  0  0  0  0
    6.1984   -0.1866   23.7566 H   0  0  0  0  0  0  0  0  0  0  0  0
    6.0508    1.7850   24.7079 H   0  0  0  0  0  0  0  0  0  0  0  0
    7.4365    2.5267   25.5720 H   0  0  0  0  0  0  0  0  0  0  0  0
    6.2563    4.4998   20.9343 H   0  0  0  0  0  0  0  0  0  0  0  0
    7.1557   -1.0107   18.4115 H   0  0  0  0  0  0  0  0  0  0  0  0
    4.3199    1.4395   16.6687 H   0  0  0  0  0  0  0  0  0  0  0  0
    2.7169    2.7249   18.0345 H   0  0  0  0  0  0  0  0  0  0  0  0
    1.7879    3.3174   20.2521 H   0  0  0  0  0  0  0  0  0  0  0  0
    2.7462    2.3162   22.3121 H   0  0  0  0  0  0  0  0  0  0  0  0
    4.6190    0.7408   22.1738 H   0  0  0  0  0  0  0  0  0  0  0  0
    5.2594   -1.8370   22.1680 H   0  0  0  0  0  0  0  0  0  0  0  0
    5.8888   -2.6574   20.7273 H   0  0  0  0  0  0  0  0  0  0  0  0
    8.1042   -2.7443   21.5901 H   0  0  0  0  0  0  0  0  0  0  0  0
    6.3390   -3.0199   24.0554 H   0  0  0  0  0  0  0  0  0  0  0  0
    8.0509   -3.3763   24.0857 H   0  0  0  0  0  0  0  0  0  0  0  0
    7.6832   -5.2247   22.6322 H   0  0  0  0  0  0  0  0  0  0  0  0
    4.3772   -3.6512   23.4216 H   0  0  0  0  0  0  0  0  0  0  0  0
    2.3673   -4.6567   22.3383 H   0  0  0  0  0  0  0  0  0  0  0  0
    4.7252   -7.4885   20.5332 H   0  0  0  0  0  0  0  0  0  0  0  0
  1  2  2  0
  2  3  1  0
  3  4  2  0
  4  5  1  0
  5  6  2  0
  6  7  1  0
  6  8  1  0
  8  9  2  0
  9 10  1  0
 10 11  1  1
 11 12  1  0
 12 13  1  0
 13 14  1  0
 14 15  2  0
 15 16  1  0
 16 17  2  0
 17 18  1  0
 10 19  1  0
 19 20  2  0
 19 21  1  0
 21 22  1  0
 22 23  2  0
 23 24  1  0
 24 25  2  0
 25 26  1  0
 26 27  2  0
 27 28  1  0
 28 29  2  0
 29 30  1  0
 30 31  2  0
 21 32  1  0
 32 33  1  0
 33 34  1  0
 34 35  1  0
 35 36  1  0
 36 37  2  0
 37 38  1  0
 38 39  2  0
 39 40  1  0
 40 41  2  0
 12  2  1  0
 18 14  1  0
 31 22  1  0
 41 36  1  0
  9  3  1  0
 33 10  1  0
 31 26  1  0
  4 42  1  0
  5 43  1  0
  8 44  1  0
 11 45  1  0
 11 46  1  0
 13 47  1  0
 13 48  1  0
 17 49  1  0
 23 50  1  0
 25 51  1  0
 27 52  1  0
 28 53  1  0
 29 54  1  0
 30 55  1  0
 32 56  1  0
 32 57  1  0
 33 58  1  6
 34 59  1  0
 34 60  1  0
 35 61  1  0
 37 62  1  0
 38 63  1  0
 40 64  1  0
M  END
>  <RMSD>  (35) 
0.17744806541704766

$$$$

     RDKit          3D

 67 73  0  0  0  0  0  0  0  0999 V2000
    9.6780    1.6175   25.6261 O   0  0  0  0  0  0  0  0  0  0  0  0
    9.1962    0.8405   24.8081 C   0  0  0  0  0  0  0  0  0  0  0  0
   10.0331   -0.1026   24.0075 C   0  0  0  0  0  0  0  0  0  0  0  0
   11.4112   -0.0373   24.1943 C   0  0  0  0  0  0  0  0  0  0  0  0
   12.2623   -0.7554   23.3804 C   0  0  0  0  0  0  0  0  0  0  0  0
   11.7077   -1.5439   22.3736 C   0  0  0  0  0  0  0  0  0  0  0  0
   12.7548   -2.4433   21.3174 Cl  0  0  0  0  0  0  0  0  0  0  0  0
   10.3421   -1.6320   22.1827 C   0  0  0  0  0  0  0  0  0  0  0  0
    9.4710   -0.9246   23.0190 C   0  0  0  0  0  0  0  0  0  0  0  0
    7.9853   -0.9500   22.7388 C   0  0  1  0  0  0  0  0  0  0  0  0
    7.2508   -0.3793   23.9788 C   0  0  0  0  0  0  0  0  0  0  0  0
    7.8732    0.8406   24.4598 N   0  0  0  0  0  0  0  0  0  0  0  0
    7.1039    2.0633   24.6518 C   0  0  0  0  0  0  0  0  0  0  0  0
    7.5329    3.2297   23.7670 C   0  0  0  0  0  0  0  0  0  0  0  0
    6.9558    3.5247   22.5462 C   0  0  0  0  0  0  0  0  0  0  0  0
    7.3485    4.7048   21.9097 C   0  0  0  0  0  0  0  0  0  0  0  0
    8.2559    5.5400   22.4071 N   0  0  0  0  0  0  0  0  0  0  0  0
    8.8626    5.2318   23.5446 N   0  0  0  0  0  0  0  0  0  0  0  0
    8.5301    4.1155   24.1907 C   0  0  0  0  0  0  0  0  0  0  0  0
    7.6450   -0.1259   21.4702 C   0  0  0  0  0  0  0  0  0  0  0  0
    8.2437    0.8152   21.0009 O   0  0  0  0  0  0  0  0  0  0  0  0
    6.5056   -0.6784   20.9234 N   0  0  0  0  0  0  0  0  0  0  0  0
    5.8650   -0.0811   19.8155 C   0  0  0  0  0  0  0  0  0  0  0  0
    6.3078   -0.3435   18.5431 C   0  0  0  0  0  0  0  0  0  0  0  0
    5.7739    0.1922   17.4161 N   0  0  0  0  0  0  0  0  0  0  0  0
    4.7657    1.0182   17.5737 C   0  0  0  0  0  0  0  0  0  0  0  0
    4.2131    1.3819   18.8376 C   0  0  0  0  0  0  0  0  0  0  0  0
    3.1270    2.2901   18.9446 C   0  0  0  0  0  0  0  0  0  0  0  0
    2.6130    2.6160   20.1697 C   0  0  0  0  0  0  0  0  0  0  0  0
    3.1561    2.0540   21.3444 C   0  0  0  0  0  0  0  0  0  0  0  0
    4.2117    1.1751   21.2685 C   0  0  0  0  0  0  0  0  0  0  0  0
    4.7672    0.8149   20.0060 C   0  0  0  0  0  0  0  0  0  0  0  0
    6.1244   -1.9487   21.5021 C   0  0  0  0  0  0  0  0  0  0  0  0
    7.3838   -2.3221   22.3030 C   0  0  2  0  0  0  0  0  0  0  0  0
    7.1579   -3.3536   23.4166 C   0  0  0  0  0  0  0  0  0  0  0  0
    6.8894   -4.6959   22.9507 N   0  0  0  0  0  0  0  0  0  0  0  0
    5.6979   -5.1191   22.4542 C   0  0  0  0  0  0  0  0  0  0  0  0
    4.4574   -4.5205   22.7405 C   0  0  0  0  0  0  0  0  0  0  0  0
    3.3464   -5.0756   22.1345 C   0  0  0  0  0  0  0  0  0  0  0  0
    3.4018   -6.1320   21.3134 N   0  0  0  0  0  0  0  0  0  0  0  0
    4.6213   -6.6262   21.1462 C   0  0  0  0  0  0  0  0  0  0  0  0
    5.7631   -6.2034   21.6668 N   0  0  0  0  0  0  0  0  0  0  0  0
   11.7844    0.6203   24.9706 H   0  0  0  0  0  0  0  0  0  0  0  0
   13.3392   -0.6873   23.4855 H   0  0  0  0  0  0  0  0  0  0  0  0
    9.9670   -2.2360   21.3638 H   0  0  0  0  0  0  0  0  0  0  0  0
    7.2632   -1.1408   24.7705 H   0  0  0  0  0  0  0  0  0  0  0  0
    6.1999   -0.1702   23.7466 H   0  0  0  0  0  0  0  0  0  0  0  0
    6.0602    1.8100   24.4428 H   0  0  0  0  0  0  0  0  0  0  0  0
    7.1836    2.3507   25.7071 H   0  0  0  0  0  0  0  0  0  0  0  0
    6.1885    2.8930   22.1031 H   0  0  0  0  0  0  0  0  0  0  0  0
    6.9206    4.9928   20.9499 H   0  0  0  0  0  0  0  0  0  0  0  0
    9.0959    3.9092   25.0970 H   0  0  0  0  0  0  0  0  0  0  0  0
    7.1511   -1.0161   18.4013 H   0  0  0  0  0  0  0  0  0  0  0  0
    4.3200    1.4444   16.6738 H   0  0  0  0  0  0  0  0  0  0  0  0
    2.7213    2.7173   18.0318 H   0  0  0  0  0  0  0  0  0  0  0  0
    1.7832    3.3118   20.2476 H   0  0  0  0  0  0  0  0  0  0  0  0
    2.7355    2.3160   22.3107 H   0  0  0  0  0  0  0  0  0  0  0  0
    4.6195    0.7549   22.1836 H   0  0  0  0  0  0  0  0  0  0  0  0
    5.2402   -1.8453   22.1523 H   0  0  0  0  0  0  0  0  0  0  0  0
    5.8725   -2.6681   20.7176 H   0  0  0  0  0  0  0  0  0  0  0  0
    8.0904   -2.7515   21.5852 H   0  0  0  0  0  0  0  0  0  0  0  0
    6.3185   -3.0431   24.0448 H   0  0  0  0  0  0  0  0  0  0  0  0
    8.0335   -3.4044   24.0720 H   0  0  0  0  0  0  0  0  0  0  0  0
    7.6629   -5.2439   22.6046 H   0  0  0  0  0  0  0  0  0  0  0  0
    4.3639   -3.6638   23.3983 H   0  0  0  0  0  0  0  0  0  0  0  0
    2.3496   -4.6647   22.3061 H   0  0  0  0  0  0  0  0  0  0  0  0
    4.7159   -7.4951   20.5018 H   0  0  0  0  0  0  0  0  0  0  0  0
  1  2  2  0
  2  3  1  0
  3  4  2  0
  4  5  1  0
  5  6  2  0
  6  7  1  0
  6  8  1  0
  8  9  2  0
  9 10  1  0
 10 11  1  1
 11 12  1  0
 12 13  1  0
 13 14  1  0
 14 15  2  0
 15 16  1  0
 16 17  2  0
 17 18  1  0
 18 19  2  0
 10 20  1  0
 20 21  2  0
 20 22  1  0
 22 23  1  0
 23 24  2  0
 24 25  1  0
 25 26  2  0
 26 27  1  0
 27 28  2  0
 28 29  1  0
 29 30  2  0
 30 31  1  0
 31 32  2  0
 22 33  1  0
 33 34  1  0
 34 35  1  0
 35 36  1  0
 36 37  1  0
 37 38  2  0
 38 39  1  0
 39 40  2  0
 40 41  1  0
 41 42  2  0
 12  2  1  0
 19 14  1  0
 32 23  1  0
 42 37  1  0
  9  3  1  0
 34 10  1  0
 32 27  1  0
  4 43  1  0
  5 44  1  0
  8 45  1  0
 11 46  1  0
 11 47  1  0
 13 48  1  0
 13 49  1  0
 15 50  1  0
 16 51  1  0
 19 52  1  0
 24 53  1  0
 26 54  1  0
 28 55  1  0
 29 56  1  0
 30 57  1  0
 31 58  1  0
 33 59  1  0
 33 60  1  0
 34 61  1  6
 35 62  1  0
 35 63  1  0
 36 64  1  0
 38 65  1  0
 39 66  1  0
 41 67  1  0
M  END
>  <RMSD>  (36) 
0.18046686966402514

$$$$

     RDKit          3D

 60 65  0  0  0  0  0  0  0  0999 V2000
    6.1210    4.2415   22.3400 C   0  0  0  0  0  0  0  0  0  0  0  0
    6.7401    3.2271   23.1732 N   0  0  0  0  0  0  0  0  0  0  0  0
    6.2325    2.9831   24.4042 C   0  0  0  0  0  0  0  0  0  0  0  0
    5.3512    3.6593   24.9149 O   0  0  0  0  0  0  0  0  0  0  0  0
    6.8107    1.8089   25.2007 C   0  0  0  0  0  0  0  0  0  0  0  0
    7.7015    0.9173   24.4972 N   0  0  0  0  0  0  0  0  0  0  0  0
    7.2080   -0.3846   24.0957 C   0  0  0  0  0  0  0  0  0  0  0  0
    7.9030   -0.9153   22.8184 C   0  0  2  0  0  0  0  0  0  0  0  0
    7.5068   -0.0432   21.6038 C   0  0  0  0  0  0  0  0  0  0  0  0
    7.9603    1.0425   21.2950 O   0  0  0  0  0  0  0  0  0  0  0  0
    6.5076   -0.6884   20.9140 N   0  0  0  0  0  0  0  0  0  0  0  0
    5.8623   -0.0763   19.8147 C   0  0  0  0  0  0  0  0  0  0  0  0
    6.3060   -0.3446   18.5460 C   0  0  0  0  0  0  0  0  0  0  0  0
    5.7788    0.1903   17.4153 N   0  0  0  0  0  0  0  0  0  0  0  0
    4.7709    1.0205   17.5688 C   0  0  0  0  0  0  0  0  0  0  0  0
    4.2164    1.3855   18.8321 C   0  0  0  0  0  0  0  0  0  0  0  0
    3.1288    2.2911   18.9442 C   0  0  0  0  0  0  0  0  0  0  0  0
    2.6116    2.6126   20.1687 C   0  0  0  0  0  0  0  0  0  0  0  0
    3.1520    2.0482   21.3438 C   0  0  0  0  0  0  0  0  0  0  0  0
    4.2114    1.1787   21.2672 C   0  0  0  0  0  0  0  0  0  0  0  0
    4.7711    0.8246   20.0037 C   0  0  0  0  0  0  0  0  0  0  0  0
    6.1095   -1.9498   21.4964 C   0  0  0  0  0  0  0  0  0  0  0  0
    7.2976   -2.2872   22.4087 C   0  0  2  0  0  0  0  0  0  0  0  0
    6.9107   -3.2475   23.5402 C   0  0  0  0  0  0  0  0  0  0  0  0
    6.4110   -4.5449   23.0070 C   0  0  0  0  0  0  0  0  0  0  0  0
    5.2020   -4.7670   22.5059 N   0  0  0  0  0  0  0  0  0  0  0  0
    5.2199   -6.0407   22.1269 N   0  0  0  0  0  0  0  0  0  0  0  0
    6.3923   -6.5540   22.3933 N   0  0  0  0  0  0  0  0  0  0  0  0
    7.1619   -5.6289   22.9472 N   0  0  0  0  0  0  0  0  0  0  0  0
    9.3993   -0.8585   23.0709 C   0  0  0  0  0  0  0  0  0  0  0  0
   10.3144   -1.7774   22.5400 C   0  0  0  0  0  0  0  0  0  0  0  0
   11.6750   -1.5805   22.7129 C   0  0  0  0  0  0  0  0  0  0  0  0
   12.7889   -2.7266   22.0201 Cl  0  0  0  0  0  0  0  0  0  0  0  0
   12.1875   -0.4871   23.4071 C   0  0  0  0  0  0  0  0  0  0  0  0
   11.2951    0.4138   23.9463 C   0  0  0  0  0  0  0  0  0  0  0  0
    9.9214    0.2230   23.7998 C   0  0  0  0  0  0  0  0  0  0  0  0
    9.0349    1.2216   24.4701 C   0  0  0  0  0  0  0  0  0  0  0  0
    9.4842    2.2556   24.9522 O   0  0  0  0  0  0  0  0  0  0  0  0
    6.1422    5.2240   22.8253 H   0  0  0  0  0  0  0  0  0  0  0  0
    5.0748    3.9850   22.1208 H   0  0  0  0  0  0  0  0  0  0  0  0
    6.6718    4.3054   21.3974 H   0  0  0  0  0  0  0  0  0  0  0  0
    7.3678    2.5684   22.7190 H   0  0  0  0  0  0  0  0  0  0  0  0
    5.9550    1.2473   25.5892 H   0  0  0  0  0  0  0  0  0  0  0  0
    7.3382    2.2282   26.0613 H   0  0  0  0  0  0  0  0  0  0  0  0
    7.3804   -1.1176   24.8951 H   0  0  0  0  0  0  0  0  0  0  0  0
    6.1279   -0.3146   23.9183 H   0  0  0  0  0  0  0  0  0  0  0  0
    7.1515   -1.0183   18.4162 H   0  0  0  0  0  0  0  0  0  0  0  0
    4.3159    1.4428   16.6715 H   0  0  0  0  0  0  0  0  0  0  0  0
    2.7163    2.7200   18.0373 H   0  0  0  0  0  0  0  0  0  0  0  0
    1.7801    3.3051   20.2529 H   0  0  0  0  0  0  0  0  0  0  0  0
    2.7424    2.3233   22.3129 H   0  0  0  0  0  0  0  0  0  0  0  0
    4.6138    0.7526   22.1818 H   0  0  0  0  0  0  0  0  0  0  0  0
    5.9402   -2.7266   20.7439 H   0  0  0  0  0  0  0  0  0  0  0  0
    5.1823   -1.8549   22.0831 H   0  0  0  0  0  0  0  0  0  0  0  0
    8.0279   -2.8109   21.7906 H   0  0  0  0  0  0  0  0  0  0  0  0
    6.1537   -2.7909   24.1797 H   0  0  0  0  0  0  0  0  0  0  0  0
    7.7693   -3.4996   24.1617 H   0  0  0  0  0  0  0  0  0  0  0  0
   10.0028   -2.6559   21.9861 H   0  0  0  0  0  0  0  0  0  0  0  0
   13.2619   -0.3669   23.5137 H   0  0  0  0  0  0  0  0  0  0  0  0
   11.6493    1.2749   24.5013 H   0  0  0  0  0  0  0  0  0  0  0  0
  1  2  1  0
  2  3  1  0
  3  4  2  0
  3  5  1  0
  5  6  1  0
  6  7  1  0
  8  7  1  1
  8  9  1  0
  9 10  2  0
  9 11  1  0
 11 12  1  0
 12 13  2  0
 13 14  1  0
 14 15  2  0
 15 16  1  0
 16 17  2  0
 17 18  1  0
 18 19  2  0
 19 20  1  0
 20 21  2  0
 11 22  1  0
 22 23  1  0
 23 24  1  0
 24 25  1  0
 25 26  1  0
 26 27  2  0
 27 28  1  0
 28 29  1  0
  8 30  1  0
 30 31  2  0
 31 32  1  0
 32 33  1  0
 32 34  2  0
 34 35  1  0
 35 36  2  0
 36 37  1  0
 37 38  2  0
 37  6  1  0
 23  8  1  0
 29 25  2  0
 36 30  1  0
 21 12  1  0
 21 16  1  0
  1 39  1  0
  1 40  1  0
  1 41  1  0
  2 42  1  0
  5 43  1  0
  5 44  1  0
  7 45  1  0
  7 46  1  0
 13 47  1  0
 15 48  1  0
 17 49  1  0
 18 50  1  0
 19 51  1  0
 20 52  1  0
 22 53  1  0
 22 54  1  0
 23 55  1  6
 24 56  1  0
 24 57  1  0
 31 58  1  0
 34 59  1  0
 35 60  1  0
M  CHG  1  28  -1
M  END
>  <RMSD>  (37) 
0.18193360295052935

$$$$

     RDKit          3D

 51 54  0  0  0  0  0  0  0  0999 V2000
    6.0005   -5.2136   26.6716 C   0  0  0  0  0  0  0  0  0  0  0  0
    6.7043   -5.1317   25.4528 O   0  0  0  0  0  0  0  0  0  0  0  0
    6.8067   -3.9034   24.8748 C   0  0  0  0  0  0  0  0  0  0  0  0
    6.1368   -2.7608   25.3108 C   0  0  0  0  0  0  0  0  0  0  0  0
    6.3881   -1.5379   24.6873 C   0  0  0  0  0  0  0  0  0  0  0  0
    7.2941   -1.4460   23.6367 C   0  0  0  0  0  0  0  0  0  0  0  0
    7.6115   -0.1703   23.0734 N   0  0  0  0  0  0  0  0  0  0  0  0
    8.4330    0.7638   23.8334 C   0  0  0  0  0  0  0  0  0  0  0  0
    9.9259    0.6940   23.5267 C   0  0  0  0  0  0  0  0  0  0  0  0
   10.7351    1.8015   23.7862 C   0  0  0  0  0  0  0  0  0  0  0  0
   12.0995    1.7576   23.5085 C   0  0  0  0  0  0  0  0  0  0  0  0
   12.6773    0.6164   22.9599 C   0  0  0  0  0  0  0  0  0  0  0  0
   11.8704   -0.4893   22.7272 C   0  0  0  0  0  0  0  0  0  0  0  0
   12.5592   -1.9395   22.0433 Cl  0  0  0  0  0  0  0  0  0  0  0  0
   10.5132   -0.4674   23.0228 C   0  0  0  0  0  0  0  0  0  0  0  0
    7.3235    0.1551   21.7655 C   0  0  0  0  0  0  0  0  0  0  0  0
    7.7537    1.1619   21.2322 O   0  0  0  0  0  0  0  0  0  0  0  0
    6.4008   -0.8242   21.0256 C   0  0  0  0  0  0  0  0  0  0  0  0
    5.7544   -0.1894   19.8359 C   0  0  0  0  0  0  0  0  0  0  0  0
    6.2230   -0.4245   18.5798 C   0  0  0  0  0  0  0  0  0  0  0  0
    5.7572    0.1531   17.4398 N   0  0  0  0  0  0  0  0  0  0  0  0
    4.7761    1.0141   17.5768 C   0  0  0  0  0  0  0  0  0  0  0  0
    4.1871    1.3693   18.8250 C   0  0  0  0  0  0  0  0  0  0  0  0
    3.1405    2.3239   18.9450 C   0  0  0  0  0  0  0  0  0  0  0  0
    2.6313    2.6297   20.1767 C   0  0  0  0  0  0  0  0  0  0  0  0
    3.1369    2.0064   21.3356 C   0  0  0  0  0  0  0  0  0  0  0  0
    4.1463    1.0835   21.2507 C   0  0  0  0  0  0  0  0  0  0  0  0
    4.6964    0.7466   19.9898 C   0  0  0  0  0  0  0  0  0  0  0  0
    7.8640   -2.6213   23.1363 C   0  0  0  0  0  0  0  0  0  0  0  0
    7.6465   -3.8346   23.7617 C   0  0  0  0  0  0  0  0  0  0  0  0
    6.1216   -6.2364   27.0320 H   0  0  0  0  0  0  0  0  0  0  0  0
    4.9314   -5.0037   26.5307 H   0  0  0  0  0  0  0  0  0  0  0  0
    6.4155   -4.5216   27.4162 H   0  0  0  0  0  0  0  0  0  0  0  0
    5.4244   -2.7964   26.1295 H   0  0  0  0  0  0  0  0  0  0  0  0
    5.8787   -0.6382   25.0276 H   0  0  0  0  0  0  0  0  0  0  0  0
    8.0643    1.7736   23.6220 H   0  0  0  0  0  0  0  0  0  0  0  0
    8.2636    0.5524   24.8975 H   0  0  0  0  0  0  0  0  0  0  0  0
   10.2971    2.7058   24.2117 H   0  0  0  0  0  0  0  0  0  0  0  0
   12.7209    2.6238   23.7243 H   0  0  0  0  0  0  0  0  0  0  0  0
   13.7368    0.5775   22.7246 H   0  0  0  0  0  0  0  0  0  0  0  0
    9.9354   -1.3723   22.8685 H   0  0  0  0  0  0  0  0  0  0  0  0
    5.6534   -1.2244   21.7203 H   0  0  0  0  0  0  0  0  0  0  0  0
    7.0100   -1.6791   20.7041 H   0  0  0  0  0  0  0  0  0  0  0  0
    7.0451   -1.1300   18.4520 H   0  0  0  0  0  0  0  0  0  0  0  0
    4.4065    1.4861   16.6597 H   0  0  0  0  0  0  0  0  0  0  0  0
    2.7605    2.8155   18.0499 H   0  0  0  0  0  0  0  0  0  0  0  0
    1.8367    3.3668   20.2651 H   0  0  0  0  0  0  0  0  0  0  0  0
    2.7341    2.2660   22.3061 H   0  0  0  0  0  0  0  0  0  0  0  0
    4.5515    0.6120   22.1401 H   0  0  0  0  0  0  0  0  0  0  0  0
    8.4901   -2.5994   22.2466 H   0  0  0  0  0  0  0  0  0  0  0  0
    8.1463   -4.7385   23.4300 H   0  0  0  0  0  0  0  0  0  0  0  0
  1  2  1  0
  2  3  1  0
  3  4  2  0
  4  5  1  0
  5  6  2  0
  6  7  1  0
  7  8  1  0
  8  9  1  0
  9 10  2  0
 10 11  1  0
 11 12  2  0
 12 13  1  0
 13 14  1  0
 13 15  2  0
  7 16  1  0
 16 17  2  0
 16 18  1  0
 18 19  1  0
 19 20  2  0
 20 21  1  0
 21 22  2  0
 22 23  1  0
 23 24  2  0
 24 25  1  0
 25 26  2  0
 26 27  1  0
 27 28  2  0
  6 29  1  0
 29 30  2  0
 30  3  1  0
 15  9  1  0
 28 19  1  0
 28 23  1  0
  1 31  1  0
  1 32  1  0
  1 33  1  0
  4 34  1  0
  5 35  1  0
  8 36  1  0
  8 37  1  0
 10 38  1  0
 11 39  1  0
 12 40  1  0
 15 41  1  0
 18 42  1  0
 18 43  1  0
 20 44  1  0
 22 45  1  0
 24 46  1  0
 25 47  1  0
 26 48  1  0
 27 49  1  0
 29 50  1  0
 30 51  1  0
M  END
>  <RMSD>  (38) 
0.0444333966673781

$$$$

     RDKit          3D

 47 50  0  0  0  0  0  0  0  0999 V2000
    5.5849   -2.2922   21.5186 O   0  0  0  0  0  0  0  0  0  0  0  0
    6.6860   -1.8177   21.3315 C   0  0  0  0  0  0  0  0  0  0  0  0
    6.8423   -0.3341   21.0020 C   0  0  0  0  0  0  0  0  0  0  0  0
    5.9459    0.0388   19.8467 C   0  0  0  0  0  0  0  0  0  0  0  0
    6.2445   -0.4015   18.5867 C   0  0  0  0  0  0  0  0  0  0  0  0
    5.6689    0.0575   17.4478 N   0  0  0  0  0  0  0  0  0  0  0  0
    4.7331    0.9671   17.5759 C   0  0  0  0  0  0  0  0  0  0  0  0
    4.2313    1.4145   18.8308 C   0  0  0  0  0  0  0  0  0  0  0  0
    3.1962    2.3755   18.9531 C   0  0  0  0  0  0  0  0  0  0  0  0
    2.6680    2.6674   20.1826 C   0  0  0  0  0  0  0  0  0  0  0  0
    3.1131    1.9807   21.3346 C   0  0  0  0  0  0  0  0  0  0  0  0
    4.1251    1.0597   21.2408 C   0  0  0  0  0  0  0  0  0  0  0  0
    4.7703    0.8317   19.9985 C   0  0  0  0  0  0  0  0  0  0  0  0
    7.8462   -2.5641   21.3588 N   0  0  0  0  0  0  0  0  0  0  0  0
    9.0813   -2.1517   22.0136 C   0  0  0  0  0  0  0  0  0  0  0  0
    9.1926   -3.1609   23.1598 C   0  0  2  0  0  0  0  0  0  0  0  0
   10.5486   -3.1276   23.8133 C   0  0  0  0  0  0  0  0  0  0  0  0
   10.6896   -1.8954   24.4419 F   0  0  0  0  0  0  0  0  0  0  0  0
    8.6547   -4.4960   22.5937 C   0  0  0  0  0  0  0  0  0  0  0  0
    7.8621   -5.2824   23.6673 C   0  0  0  0  0  0  0  0  0  0  0  0
    7.7163   -6.7365   23.1618 C   0  0  0  0  0  0  0  0  0  0  0  0
    8.7976   -6.8802   22.0629 C   0  0  0  0  0  0  0  0  0  0  0  0
    9.6510   -5.6120   22.2197 C   0  0  0  0  0  0  0  0  0  0  0  0
    7.8282   -4.0305   21.3513 C   0  0  0  0  0  0  0  0  0  0  0  0
    6.5899    0.2542   21.8902 H   0  0  0  0  0  0  0  0  0  0  0  0
    7.8868   -0.1151   20.7445 H   0  0  0  0  0  0  0  0  0  0  0  0
    7.0245   -1.1449   18.4390 H   0  0  0  0  0  0  0  0  0  0  0  0
    4.3022    1.3590   16.6552 H   0  0  0  0  0  0  0  0  0  0  0  0
    2.8013    2.8464   18.0579 H   0  0  0  0  0  0  0  0  0  0  0  0
    1.8845    3.4121   20.2776 H   0  0  0  0  0  0  0  0  0  0  0  0
    2.6530    2.1935   22.2959 H   0  0  0  0  0  0  0  0  0  0  0  0
    4.4218    0.4717   22.1052 H   0  0  0  0  0  0  0  0  0  0  0  0
    9.9224   -2.2476   21.3106 H   0  0  0  0  0  0  0  0  0  0  0  0
    9.0510   -1.1267   22.3968 H   0  0  0  0  0  0  0  0  0  0  0  0
    8.4695   -2.8581   23.9235 H   0  0  0  0  0  0  0  0  0  0  0  0
   11.3237   -3.2118   23.0491 H   0  0  0  0  0  0  0  0  0  0  0  0
   10.6847   -3.9090   24.5717 H   0  0  0  0  0  0  0  0  0  0  0  0
    6.9173   -4.7975   23.9342 H   0  0  0  0  0  0  0  0  0  0  0  0
    8.4890   -5.2862   24.5708 H   0  0  0  0  0  0  0  0  0  0  0  0
    6.7115   -6.9222   22.7651 H   0  0  0  0  0  0  0  0  0  0  0  0
    7.8754   -7.4523   23.9801 H   0  0  0  0  0  0  0  0  0  0  0  0
    8.3418   -6.9163   21.0653 H   0  0  0  0  0  0  0  0  0  0  0  0
    9.3868   -7.8026   22.1651 H   0  0  0  0  0  0  0  0  0  0  0  0
   10.3093   -5.7845   23.0747 H   0  0  0  0  0  0  0  0  0  0  0  0
   10.2495   -5.4035   21.3325 H   0  0  0  0  0  0  0  0  0  0  0  0
    6.8010   -4.4044   21.3391 H   0  0  0  0  0  0  0  0  0  0  0  0
    8.3189   -4.3943   20.4348 H   0  0  0  0  0  0  0  0  0  0  0  0
  1  2  2  0
  2  3  1  0
  3  4  1  0
  4  5  2  0
  5  6  1  0
  6  7  2  0
  7  8  1  0
  8  9  2  0
  9 10  1  0
 10 11  2  0
 11 12  1  0
 12 13  2  0
  2 14  1  0
 14 15  1  0
 15 16  1  0
 16 17  1  0
 17 18  1  0
 16 19  1  0
 19 20  1  0
 20 21  1  0
 21 22  1  0
 22 23  1  0
 19 24  1  0
 13  4  1  0
 24 14  1  0
 13  8  1  0
 23 19  1  0
  3 25  1  0
  3 26  1  0
  5 27  1  0
  7 28  1  0
  9 29  1  0
 10 30  1  0
 11 31  1  0
 12 32  1  0
 15 33  1  0
 15 34  1  0
 16 35  1  1
 17 36  1  0
 17 37  1  0
 20 38  1  0
 20 39  1  0
 21 40  1  0
 21 41  1  0
 22 42  1  0
 22 43  1  0
 23 44  1  0
 23 45  1  0
 24 46  1  0
 24 47  1  0
M  END
>  <RMSD>  (39) 
0.11151411330355836

$$$$

     RDKit          3D

 59 64  0  0  0  0  0  0  0  0999 V2000
    7.0697   -3.2817   23.5092 C   0  0  0  0  0  0  0  0  0  0  0  0
    7.3582   -2.2788   22.3994 C   0  0  1  0  0  0  0  0  0  0  0  0
    6.1413   -1.9250   21.5340 C   0  0  0  0  0  0  0  0  0  0  0  0
    6.5304   -0.6599   20.9415 N   0  0  0  0  0  0  0  0  0  0  0  0
    5.8824   -0.0580   19.8299 C   0  0  0  0  0  0  0  0  0  0  0  0
    6.3070   -0.3444   18.5583 C   0  0  0  0  0  0  0  0  0  0  0  0
    5.7651    0.1760   17.4275 N   0  0  0  0  0  0  0  0  0  0  0  0
    4.7624    1.0121   17.5680 C   0  0  0  0  0  0  0  0  0  0  0  0
    4.2008    1.3820   18.8248 C   0  0  0  0  0  0  0  0  0  0  0  0
    3.1165    2.2981   18.9406 C   0  0  0  0  0  0  0  0  0  0  0  0
    2.6113    2.6214   20.1694 C   0  0  0  0  0  0  0  0  0  0  0  0
    3.1483    2.0391   21.3411 C   0  0  0  0  0  0  0  0  0  0  0  0
    4.1935    1.1510   21.2557 C   0  0  0  0  0  0  0  0  0  0  0  0
    4.7617    0.8189   19.9980 C   0  0  0  0  0  0  0  0  0  0  0  0
    7.5532   -0.0246   21.6188 C   0  0  0  0  0  0  0  0  0  0  0  0
    8.0417    1.0251   21.2742 O   0  0  0  0  0  0  0  0  0  0  0  0
    7.9280   -0.9038   22.8434 C   0  0  1  0  0  0  0  0  0  0  0  0
    7.2123   -0.3737   24.1170 C   0  0  0  0  0  0  0  0  0  0  0  0
    7.6813    0.9454   24.4956 N   0  0  0  0  0  0  0  0  0  0  0  0
    6.7774    1.8413   25.1942 C   0  0  0  0  0  0  0  0  0  0  0  0
    6.3185    2.9884   24.3346 C   0  0  0  0  0  0  0  0  0  0  0  0
    6.3512    2.9853   23.0217 N   0  0  0  0  0  0  0  0  0  0  0  0
    5.7987    4.1800   22.6403 C   0  0  0  0  0  0  0  0  0  0  0  0
    5.4141    4.9021   23.7403 C   0  0  0  0  0  0  0  0  0  0  0  0
    5.7464    4.1241   24.8292 N   0  0  0  0  0  0  0  0  0  0  0  0
    5.5531    4.4523   26.2253 C   0  0  0  0  0  0  0  0  0  0  0  0
    9.0046    1.2887   24.4347 C   0  0  0  0  0  0  0  0  0  0  0  0
    9.4120    2.3569   24.8645 O   0  0  0  0  0  0  0  0  0  0  0  0
    9.9228    0.2630   23.8253 C   0  0  0  0  0  0  0  0  0  0  0  0
   11.3008    0.4383   23.9756 C   0  0  0  0  0  0  0  0  0  0  0  0
   12.1943   -0.4689   23.4371 C   0  0  0  0  0  0  0  0  0  0  0  0
   11.6734   -1.5630   22.7517 C   0  0  0  0  0  0  0  0  0  0  0  0
   12.5235   -2.4521   22.2099 F   0  0  0  0  0  0  0  0  0  0  0  0
   10.3182   -1.7666   22.5849 C   0  0  0  0  0  0  0  0  0  0  0  0
    9.4152   -0.8391   23.1160 C   0  0  0  0  0  0  0  0  0  0  0  0
    6.7892   -4.2595   23.1041 H   0  0  0  0  0  0  0  0  0  0  0  0
    7.9399   -3.4262   24.1580 H   0  0  0  0  0  0  0  0  0  0  0  0
    6.2481   -2.9407   24.1470 H   0  0  0  0  0  0  0  0  0  0  0  0
    8.0839   -2.7281   21.7170 H   0  0  0  0  0  0  0  0  0  0  0  0
    5.2319   -1.8483   22.1558 H   0  0  0  0  0  0  0  0  0  0  0  0
    5.9475   -2.6684   20.7566 H   0  0  0  0  0  0  0  0  0  0  0  0
    7.1424   -1.0251   18.4085 H   0  0  0  0  0  0  0  0  0  0  0  0
    4.3361    1.4398   16.6581 H   0  0  0  0  0  0  0  0  0  0  0  0
    2.7080    2.7444   18.0350 H   0  0  0  0  0  0  0  0  0  0  0  0
    1.7877    3.3267   20.2585 H   0  0  0  0  0  0  0  0  0  0  0  0
    2.7513    2.3114   22.3157 H   0  0  0  0  0  0  0  0  0  0  0  0
    4.6316    0.7342   22.1607 H   0  0  0  0  0  0  0  0  0  0  0  0
    7.3756   -1.0739   24.9515 H   0  0  0  0  0  0  0  0  0  0  0  0
    6.1350   -0.3079   23.9259 H   0  0  0  0  0  0  0  0  0  0  0  0
    5.9015    1.2541   25.5046 H   0  0  0  0  0  0  0  0  0  0  0  0
    7.2671    2.2020   26.1060 H   0  0  0  0  0  0  0  0  0  0  0  0
    5.7027    4.4451   21.5973 H   0  0  0  0  0  0  0  0  0  0  0  0
    4.9497    5.8731   23.8439 H   0  0  0  0  0  0  0  0  0  0  0  0
    6.5016    4.6441   26.7385 H   0  0  0  0  0  0  0  0  0  0  0  0
    4.9443    5.3519   26.2862 H   0  0  0  0  0  0  0  0  0  0  0  0
    5.0231    3.6539   26.7540 H   0  0  0  0  0  0  0  0  0  0  0  0
   11.6636    1.3000   24.5245 H   0  0  0  0  0  0  0  0  0  0  0  0
   13.2721   -0.3475   23.5226 H   0  0  0  0  0  0  0  0  0  0  0  0
    9.9879   -2.6484   22.0443 H   0  0  0  0  0  0  0  0  0  0  0  0
  1  2  1  0
  2  3  1  0
  3  4  1  0
  4  5  1  0
  5  6  2  0
  6  7  1  0
  7  8  2  0
  8  9  1  0
  9 10  2  0
 10 11  1  0
 11 12  2  0
 12 13  1  0
 13 14  2  0
  4 15  1  0
 15 16  2  0
 15 17  1  0
 17 18  1  1
 18 19  1  0
 19 20  1  0
 20 21  1  0
 21 22  2  0
 22 23  1  0
 23 24  2  0
 24 25  1  0
 25 26  1  0
 19 27  1  0
 27 28  2  0
 27 29  1  0
 29 30  2  0
 30 31  1  0
 31 32  2  0
 32 33  1  0
 32 34  1  0
 34 35  2  0
 17  2  1  0
 25 21  1  0
 35 29  1  0
 14  5  1  0
 35 17  1  0
 14  9  1  0
  1 36  1  0
  1 37  1  0
  1 38  1  0
  2 39  1  6
  3 40  1  0
  3 41  1  0
  6 42  1  0
  8 43  1  0
 10 44  1  0
 11 45  1  0
 12 46  1  0
 13 47  1  0
 18 48  1  0
 18 49  1  0
 20 50  1  0
 20 51  1  0
 23 52  1  0
 24 53  1  0
 26 54  1  0
 26 55  1  0
 26 56  1  0
 30 57  1  0
 31 58  1  0
 34 59  1  0
M  END
>  <RMSD>  (40) 
0.1725242643378077

$$$$

     RDKit          3D

 68 73  0  0  0  0  0  0  0  0999 V2000
    6.1133    4.2698   22.3486 C   0  0  0  0  0  0  0  0  0  0  0  0
    6.7214    3.2612   23.1962 N   0  0  0  0  0  0  0  0  0  0  0  0
    6.2222    3.0160   24.4259 C   0  0  0  0  0  0  0  0  0  0  0  0
    5.3392    3.6938   24.9386 O   0  0  0  0  0  0  0  0  0  0  0  0
    6.7888    1.8126   25.1959 C   0  0  0  0  0  0  0  0  0  0  0  0
    7.6848    0.9281   24.4815 N   0  0  0  0  0  0  0  0  0  0  0  0
    7.2100   -0.3918   24.1097 C   0  0  0  0  0  0  0  0  0  0  0  0
    7.9247   -0.9126   22.8379 C   0  0  2  0  0  0  0  0  0  0  0  0
    7.5326   -0.0292   21.6214 C   0  0  0  0  0  0  0  0  0  0  0  0
    7.9951    1.0511   21.3071 O   0  0  0  0  0  0  0  0  0  0  0  0
    6.5220   -0.6721   20.9365 N   0  0  0  0  0  0  0  0  0  0  0  0
    5.8810   -0.0614   19.8249 C   0  0  0  0  0  0  0  0  0  0  0  0
    6.3080   -0.3408   18.5534 C   0  0  0  0  0  0  0  0  0  0  0  0
    5.7635    0.1808   17.4226 N   0  0  0  0  0  0  0  0  0  0  0  0
    4.7598    1.0129   17.5711 C   0  0  0  0  0  0  0  0  0  0  0  0
    4.2050    1.3874   18.8308 C   0  0  0  0  0  0  0  0  0  0  0  0
    3.1161    2.2945   18.9428 C   0  0  0  0  0  0  0  0  0  0  0  0
    2.6014    2.6127   20.1702 C   0  0  0  0  0  0  0  0  0  0  0  0
    3.1450    2.0385   21.3430 C   0  0  0  0  0  0  0  0  0  0  0  0
    4.2054    1.1698   21.2602 C   0  0  0  0  0  0  0  0  0  0  0  0
    4.7735    0.8291   20.0011 C   0  0  0  0  0  0  0  0  0  0  0  0
    6.1324   -1.9467   21.5148 C   0  0  0  0  0  0  0  0  0  0  0  0
    7.3603   -2.2893   22.3763 C   0  0  2  0  0  0  0  0  0  0  0  0
    7.0936   -3.3193   23.4916 C   0  0  0  0  0  0  0  0  0  0  0  0
    6.8058   -4.6619   23.0416 N   0  0  0  0  0  0  0  0  0  0  0  0
    5.5262   -5.0571   22.6813 C   0  0  0  0  0  0  0  0  0  0  0  0
    5.1716   -6.2404   21.9745 C   0  0  0  0  0  0  0  0  0  0  0  0
    3.8543   -6.3554   21.8509 N   0  0  0  0  0  0  0  0  0  0  0  0
    3.3428   -5.2888   22.4655 N   0  0  0  0  0  0  0  0  0  0  0  0
    1.9155   -5.0608   22.4893 C   0  0  0  0  0  0  0  0  0  0  0  0
    4.3074   -4.4743   22.9791 C   0  0  0  0  0  0  0  0  0  0  0  0
    9.4155   -0.8457   23.0995 C   0  0  0  0  0  0  0  0  0  0  0  0
   10.3207   -1.7725   22.5685 C   0  0  0  0  0  0  0  0  0  0  0  0
   11.6825   -1.5804   22.7215 C   0  0  0  0  0  0  0  0  0  0  0  0
   12.7891   -2.7195   22.0014 Cl  0  0  0  0  0  0  0  0  0  0  0  0
   12.1920   -0.4847   23.4201 C   0  0  0  0  0  0  0  0  0  0  0  0
   11.3020    0.4189   23.9698 C   0  0  0  0  0  0  0  0  0  0  0  0
    9.9277    0.2424   23.8225 C   0  0  0  0  0  0  0  0  0  0  0  0
    9.0124    1.2568   24.4468 C   0  0  0  0  0  0  0  0  0  0  0  0
    9.4102    2.3322   24.8804 O   0  0  0  0  0  0  0  0  0  0  0  0
    5.0668    4.0147   22.1331 H   0  0  0  0  0  0  0  0  0  0  0  0
    6.1362    5.2587   22.8212 H   0  0  0  0  0  0  0  0  0  0  0  0
    6.6728    4.2956   21.4090 H   0  0  0  0  0  0  0  0  0  0  0  0
    7.5096    2.7390   22.8389 H   0  0  0  0  0  0  0  0  0  0  0  0
    5.9153    1.2439   25.5272 H   0  0  0  0  0  0  0  0  0  0  0  0
    7.2899    2.2043   26.0880 H   0  0  0  0  0  0  0  0  0  0  0  0
    6.1322   -0.3154   23.9244 H   0  0  0  0  0  0  0  0  0  0  0  0
    7.3752   -1.0987   24.9356 H   0  0  0  0  0  0  0  0  0  0  0  0
    7.1398   -1.0274   18.4062 H   0  0  0  0  0  0  0  0  0  0  0  0
    4.3397    1.4369   16.6585 H   0  0  0  0  0  0  0  0  0  0  0  0
    2.7191    2.7337   18.0301 H   0  0  0  0  0  0  0  0  0  0  0  0
    1.7839    3.3238   20.2590 H   0  0  0  0  0  0  0  0  0  0  0  0
    2.7486    2.3154   22.3181 H   0  0  0  0  0  0  0  0  0  0  0  0
    4.6249    0.7339   22.1628 H   0  0  0  0  0  0  0  0  0  0  0  0
    5.2176   -1.8582   22.1263 H   0  0  0  0  0  0  0  0  0  0  0  0
    5.9192   -2.6853   20.7364 H   0  0  0  0  0  0  0  0  0  0  0  0
    8.1086   -2.6940   21.6860 H   0  0  0  0  0  0  0  0  0  0  0  0
    7.9791   -3.3682   24.1375 H   0  0  0  0  0  0  0  0  0  0  0  0
    6.2410   -2.9825   24.1033 H   0  0  0  0  0  0  0  0  0  0  0  0
    7.5601   -5.1760   22.6052 H   0  0  0  0  0  0  0  0  0  0  0  0
    5.8028   -7.0211   21.5502 H   0  0  0  0  0  0  0  0  0  0  0  0
    1.6590   -4.6007   23.4480 H   0  0  0  0  0  0  0  0  0  0  0  0
    1.4135   -6.0238   22.3822 H   0  0  0  0  0  0  0  0  0  0  0  0
    1.6060   -4.4037   21.6685 H   0  0  0  0  0  0  0  0  0  0  0  0
    4.0376   -3.5597   23.4980 H   0  0  0  0  0  0  0  0  0  0  0  0
    9.9712   -2.6471   22.0331 H   0  0  0  0  0  0  0  0  0  0  0  0
   13.2637   -0.3497   23.5188 H   0  0  0  0  0  0  0  0  0  0  0  0
   11.6355    1.2914   24.5204 H   0  0  0  0  0  0  0  0  0  0  0  0
  1  2  1  0
  2  3  1  0
  3  4  2  0
  3  5  1  0
  5  6  1  0
  6  7  1  0
  8  7  1  1
  8  9  1  0
  9 10  2  0
  9 11  1  0
 11 12  1  0
 12 13  2  0
 13 14  1  0
 14 15  2  0
 15 16  1  0
 16 17  2  0
 17 18  1  0
 18 19  2  0
 19 20  1  0
 20 21  2  0
 11 22  1  0
 22 23  1  0
 23 24  1  0
 24 25  1  0
 25 26  1  0
 26 27  1  0
 27 28  2  0
 28 29  1  0
 29 30  1  0
 29 31  1  0
  8 32  1  0
 32 33  2  0
 33 34  1  0
 34 35  1  0
 34 36  2  0
 36 37  1  0
 37 38  2  0
 38 39  1  0
 39 40  2  0
 39  6  1  0
 23  8  1  0
 31 26  2  0
 38 32  1  0
 21 12  1  0
 21 16  1  0
  1 41  1  0
  1 42  1  0
  1 43  1  0
  2 44  1  0
  5 45  1  0
  5 46  1  0
  7 47  1  0
  7 48  1  0
 13 49  1  0
 15 50  1  0
 17 51  1  0
 18 52  1  0
 19 53  1  0
 20 54  1  0
 22 55  1  0
 22 56  1  0
 23 57  1  6
 24 58  1  0
 24 59  1  0
 25 60  1  0
 27 61  1  0
 30 62  1  0
 30 63  1  0
 30 64  1  0
 31 65  1  0
 33 66  1  0
 36 67  1  0
 37 68  1  0
M  END
>  <RMSD>  (41) 
0.17613522216664562

$$$$

     RDKit          3D

 72 77  0  0  0  0  0  0  0  0999 V2000
    7.1901   -3.2377   23.4976 C   0  0  0  0  0  0  0  0  0  0  0  0
    7.3999   -2.2444   22.3663 C   0  0  1  0  0  0  0  0  0  0  0  0
    6.1370   -1.9185   21.5549 C   0  0  0  0  0  0  0  0  0  0  0  0
    6.5100   -0.6728   20.9108 N   0  0  0  0  0  0  0  0  0  0  0  0
    5.8527   -0.0893   19.8069 C   0  0  0  0  0  0  0  0  0  0  0  0
    6.3118   -0.3383   18.5399 C   0  0  0  0  0  0  0  0  0  0  0  0
    5.7776    0.1932   17.4131 N   0  0  0  0  0  0  0  0  0  0  0  0
    4.7628    1.0128   17.5757 C   0  0  0  0  0  0  0  0  0  0  0  0
    4.2079    1.3744   18.8379 C   0  0  0  0  0  0  0  0  0  0  0  0
    3.1289    2.2903   18.9431 C   0  0  0  0  0  0  0  0  0  0  0  0
    2.6206    2.6217   20.1692 C   0  0  0  0  0  0  0  0  0  0  0  0
    3.1594    2.0558   21.3439 C   0  0  0  0  0  0  0  0  0  0  0  0
    4.2050    1.1672   21.2718 C   0  0  0  0  0  0  0  0  0  0  0  0
    4.7558    0.8028   20.0069 C   0  0  0  0  0  0  0  0  0  0  0  0
    7.6521   -0.0939   21.4184 C   0  0  0  0  0  0  0  0  0  0  0  0
    8.2340    0.8378   20.9014 O   0  0  0  0  0  0  0  0  0  0  0  0
    8.0011   -0.8475   22.7231 C   0  0  1  0  0  0  0  0  0  0  0  0
    7.2682   -0.1792   23.9171 C   0  0  0  0  0  0  0  0  0  0  0  0
    7.8928    1.0727   24.2955 N   0  0  0  0  0  0  0  0  0  0  0  0
    7.1223    2.2906   24.4275 C   0  0  0  0  0  0  0  0  0  0  0  0
    7.0852    3.0600   23.0992 C   0  0  0  0  0  0  0  0  0  0  0  0
    6.5018    4.4437   23.2071 N   0  0  1  0  0  0  0  0  0  0  0  0
    5.1400    4.5118   23.8615 C   0  0  0  0  0  0  0  0  0  0  0  0
    4.6395    5.9452   23.8818 C   0  0  0  0  0  0  0  0  0  0  0  0
    5.5418    6.8076   24.5432 O   0  0  0  0  0  0  0  0  0  0  0  0
    6.8413    6.8470   23.9356 C   0  0  0  0  0  0  0  0  0  0  0  0
    6.7846    7.4939   22.5460 C   0  0  0  0  0  0  0  0  0  0  0  0
    7.6813    7.6827   24.8869 C   0  0  0  0  0  0  0  0  0  0  0  0
    7.4433    5.4340   23.8446 C   0  0  0  0  0  0  0  0  0  0  0  0
    9.2083    1.0790   24.6640 C   0  0  0  0  0  0  0  0  0  0  0  0
    9.6955    1.8996   25.4302 O   0  0  0  0  0  0  0  0  0  0  0  0
   10.0420    0.0541   23.9530 C   0  0  0  0  0  0  0  0  0  0  0  0
   11.4113    0.0650   24.1976 C   0  0  0  0  0  0  0  0  0  0  0  0
   12.2635   -0.6963   23.4242 C   0  0  0  0  0  0  0  0  0  0  0  0
   11.7166   -1.4851   22.4147 C   0  0  0  0  0  0  0  0  0  0  0  0
   12.7630   -2.4047   21.3797 Cl  0  0  0  0  0  0  0  0  0  0  0  0
   10.3542   -1.5695   22.2115 C   0  0  0  0  0  0  0  0  0  0  0  0
    9.4843   -0.8120   23.0009 C   0  0  0  0  0  0  0  0  0  0  0  0
    8.1063   -3.3791   24.0795 H   0  0  0  0  0  0  0  0  0  0  0  0
    6.8905   -4.2105   23.0938 H   0  0  0  0  0  0  0  0  0  0  0  0
    6.4016   -2.9057   24.1799 H   0  0  0  0  0  0  0  0  0  0  0  0
    8.0976   -2.6938   21.6538 H   0  0  0  0  0  0  0  0  0  0  0  0
    5.9091   -2.6869   20.8082 H   0  0  0  0  0  0  0  0  0  0  0  0
    5.2545   -1.8088   22.2074 H   0  0  0  0  0  0  0  0  0  0  0  0
    7.1680   -0.9981   18.4085 H   0  0  0  0  0  0  0  0  0  0  0  0
    4.3141    1.4365   16.6786 H   0  0  0  0  0  0  0  0  0  0  0  0
    2.7237    2.7189   18.0309 H   0  0  0  0  0  0  0  0  0  0  0  0
    1.7936    3.3188   20.2488 H   0  0  0  0  0  0  0  0  0  0  0  0
    2.7390    2.3202   22.3115 H   0  0  0  0  0  0  0  0  0  0  0  0
    4.6057    0.7536   22.1936 H   0  0  0  0  0  0  0  0  0  0  0  0
    6.2146    0.0096   23.6844 H   0  0  0  0  0  0  0  0  0  0  0  0
    7.3058   -0.8678   24.7723 H   0  0  0  0  0  0  0  0  0  0  0  0
    6.1053    2.0240   24.7406 H   0  0  0  0  0  0  0  0  0  0  0  0
    7.6008    2.8723   25.2227 H   0  0  0  0  0  0  0  0  0  0  0  0
    8.0957    3.1489   22.6834 H   0  0  0  0  0  0  0  0  0  0  0  0
    6.4924    2.5033   22.3643 H   0  0  0  0  0  0  0  0  0  0  0  0
    6.3751    4.7482   22.2239 H   0  0  0  0  0  0  0  0  0  0  0  0
    4.4448    3.8671   23.3190 H   0  0  0  0  0  0  0  0  0  0  0  0
    5.2209    4.1473   24.8860 H   0  0  0  0  0  0  0  0  0  0  0  0
    4.4507    6.2890   22.8571 H   0  0  0  0  0  0  0  0  0  0  0  0
    3.6936    6.0076   24.4251 H   0  0  0  0  0  0  0  0  0  0  0  0
    7.7691    7.4658   22.0627 H   0  0  0  0  0  0  0  0  0  0  0  0
    6.0965    6.9607   21.8851 H   0  0  0  0  0  0  0  0  0  0  0  0
    6.4585    8.5386   22.6196 H   0  0  0  0  0  0  0  0  0  0  0  0
    8.7140    7.7633   24.5316 H   0  0  0  0  0  0  0  0  0  0  0  0
    7.2495    8.6836   24.9652 H   0  0  0  0  0  0  0  0  0  0  0  0
    7.6786    7.2319   25.8845 H   0  0  0  0  0  0  0  0  0  0  0  0
    7.7020    5.0698   24.8417 H   0  0  0  0  0  0  0  0  0  0  0  0
    8.3702    5.4752   23.2602 H   0  0  0  0  0  0  0  0  0  0  0  0
   11.7799    0.7204   24.9774 H   0  0  0  0  0  0  0  0  0  0  0  0
   13.3372   -0.6429   23.5507 H   0  0  0  0  0  0  0  0  0  0  0  0
    9.9827   -2.2057   21.4160 H   0  0  0  0  0  0  0  0  0  0  0  0
  1  2  1  0
  2  3  1  0
  3  4  1  0
  4  5  1  0
  5  6  2  0
  6  7  1  0
  7  8  2  0
  8  9  1  0
  9 10  2  0
 10 11  1  0
 11 12  2  0
 12 13  1  0
 13 14  2  0
  4 15  1  0
 15 16  2  0
 15 17  1  0
 17 18  1  1
 18 19  1  0
 19 20  1  0
 20 21  1  0
 21 22  1  0
 22 23  1  0
 23 24  1  0
 24 25  1  0
 25 26  1  0
 26 27  1  0
 26 28  1  0
 26 29  1  0
 19 30  1  0
 30 31  2  0
 30 32  1  0
 32 33  2  0
 33 34  1  0
 34 35  2  0
 35 36  1  0
 35 37  1  0
 37 38  2  0
 17  2  1  0
 29 22  1  0
 38 32  1  0
 14  5  1  0
 38 17  1  0
 14  9  1  0
  1 39  1  0
  1 40  1  0
  1 41  1  0
  2 42  1  6
  3 43  1  0
  3 44  1  0
  6 45  1  0
  8 46  1  0
 10 47  1  0
 11 48  1  0
 12 49  1  0
 13 50  1  0
 18 51  1  0
 18 52  1  0
 20 53  1  0
 20 54  1  0
 21 55  1  0
 21 56  1  0
 22 57  1  6
 23 58  1  0
 23 59  1  0
 24 60  1  0
 24 61  1  0
 27 62  1  0
 27 63  1  0
 27 64  1  0
 28 65  1  0
 28 66  1  0
 28 67  1  0
 29 68  1  0
 29 69  1  0
 33 70  1  0
 34 71  1  0
 37 72  1  0
M  CHG  1  22   1
M  END
>  <RMSD>  (42) 
0.18054600136491528

$$$$

     RDKit          3D

 57 62  0  0  0  0  0  0  0  0999 V2000
    7.0680   -3.2834   23.5103 C   0  0  0  0  0  0  0  0  0  0  0  0
    7.3592   -2.2816   22.3990 C   0  0  1  0  0  0  0  0  0  0  0  0
    6.1425   -1.9260   21.5341 C   0  0  0  0  0  0  0  0  0  0  0  0
    6.5299   -0.6587   20.9433 N   0  0  0  0  0  0  0  0  0  0  0  0
    5.8809   -0.0603   19.8289 C   0  0  0  0  0  0  0  0  0  0  0  0
    6.3062   -0.3465   18.5570 C   0  0  0  0  0  0  0  0  0  0  0  0
    5.7651    0.1755   17.4268 N   0  0  0  0  0  0  0  0  0  0  0  0
    4.7633    1.0119   17.5686 C   0  0  0  0  0  0  0  0  0  0  0  0
    4.2031    1.3836   18.8246 C   0  0  0  0  0  0  0  0  0  0  0  0
    3.1175    2.2996   18.9423 C   0  0  0  0  0  0  0  0  0  0  0  0
    2.6095    2.6193   20.1696 C   0  0  0  0  0  0  0  0  0  0  0  0
    3.1506    2.0420   21.3403 C   0  0  0  0  0  0  0  0  0  0  0  0
    4.2003    1.1584   21.2545 C   0  0  0  0  0  0  0  0  0  0  0  0
    4.7631    0.8176   19.9969 C   0  0  0  0  0  0  0  0  0  0  0  0
    7.5447   -0.0180   21.6287 C   0  0  0  0  0  0  0  0  0  0  0  0
    8.0173    1.0471   21.3060 O   0  0  0  0  0  0  0  0  0  0  0  0
    7.9269   -0.9065   22.8432 C   0  0  1  0  0  0  0  0  0  0  0  0
    7.2103   -0.3770   24.1155 C   0  0  0  0  0  0  0  0  0  0  0  0
    7.6780    0.9419   24.4824 N   0  0  0  0  0  0  0  0  0  0  0  0
    6.7752    1.8441   25.1727 C   0  0  0  0  0  0  0  0  0  0  0  0
    6.4621    3.0989   24.3937 C   0  0  0  0  0  0  0  0  0  0  0  0
    6.4113    4.3326   25.0293 C   0  0  0  0  0  0  0  0  0  0  0  0
    6.1052    5.4295   24.2414 C   0  0  0  0  0  0  0  0  0  0  0  0
    5.8628    5.3297   22.9357 N   0  0  0  0  0  0  0  0  0  0  0  0
    5.9275    4.0998   22.4371 C   0  0  0  0  0  0  0  0  0  0  0  0
    6.2001    2.9720   23.0955 N   0  0  0  0  0  0  0  0  0  0  0  0
    8.9994    1.2871   24.4289 C   0  0  0  0  0  0  0  0  0  0  0  0
    9.4056    2.3553   24.8590 O   0  0  0  0  0  0  0  0  0  0  0  0
    9.9207    0.2625   23.8260 C   0  0  0  0  0  0  0  0  0  0  0  0
   11.2980    0.4371   23.9778 C   0  0  0  0  0  0  0  0  0  0  0  0
   12.1901   -0.4701   23.4381 C   0  0  0  0  0  0  0  0  0  0  0  0
   11.6711   -1.5648   22.7520 C   0  0  0  0  0  0  0  0  0  0  0  0
   12.5218   -2.4538   22.2112 F   0  0  0  0  0  0  0  0  0  0  0  0
   10.3165   -1.7678   22.5873 C   0  0  0  0  0  0  0  0  0  0  0  0
    9.4135   -0.8394   23.1168 C   0  0  0  0  0  0  0  0  0  0  0  0
    6.7876   -4.2609   23.1028 H   0  0  0  0  0  0  0  0  0  0  0  0
    7.9396   -3.4279   24.1588 H   0  0  0  0  0  0  0  0  0  0  0  0
    6.2441   -2.9415   24.1468 H   0  0  0  0  0  0  0  0  0  0  0  0
    8.0795   -2.7365   21.7129 H   0  0  0  0  0  0  0  0  0  0  0  0
    5.9512   -2.6705   20.7565 H   0  0  0  0  0  0  0  0  0  0  0  0
    5.2329   -1.8469   22.1565 H   0  0  0  0  0  0  0  0  0  0  0  0
    7.1430   -1.0271   18.4090 H   0  0  0  0  0  0  0  0  0  0  0  0
    4.3348    1.4402   16.6590 H   0  0  0  0  0  0  0  0  0  0  0  0
    2.7066    2.7450   18.0384 H   0  0  0  0  0  0  0  0  0  0  0  0
    1.7871    3.3249   20.2594 H   0  0  0  0  0  0  0  0  0  0  0  0
    2.7473    2.3076   22.3130 H   0  0  0  0  0  0  0  0  0  0  0  0
    4.6283    0.7346   22.1595 H   0  0  0  0  0  0  0  0  0  0  0  0
    7.3748   -1.0742   24.9533 H   0  0  0  0  0  0  0  0  0  0  0  0
    6.1315   -0.3141   23.9228 H   0  0  0  0  0  0  0  0  0  0  0  0
    5.8449    1.3024   25.3664 H   0  0  0  0  0  0  0  0  0  0  0  0
    7.1956    2.1042   26.1447 H   0  0  0  0  0  0  0  0  0  0  0  0
    6.6054    4.4194   26.0914 H   0  0  0  0  0  0  0  0  0  0  0  0
    6.0539    6.4237   24.6781 H   0  0  0  0  0  0  0  0  0  0  0  0
    5.7153    3.9928   21.3765 H   0  0  0  0  0  0  0  0  0  0  0  0
   11.6665    1.2965   24.5266 H   0  0  0  0  0  0  0  0  0  0  0  0
   13.2671   -0.3483   23.5251 H   0  0  0  0  0  0  0  0  0  0  0  0
    9.9889   -2.6495   22.0456 H   0  0  0  0  0  0  0  0  0  0  0  0
  1  2  1  0
  2  3  1  0
  3  4  1  0
  4  5  1  0
  5  6  2  0
  6  7  1  0
  7  8  2  0
  8  9  1  0
  9 10  2  0
 10 11  1  0
 11 12  2  0
 12 13  1  0
 13 14  2  0
  4 15  1  0
 15 16  2  0
 15 17  1  0
 17 18  1  1
 18 19  1  0
 19 20  1  0
 20 21  1  0
 21 22  2  0
 22 23  1  0
 23 24  2  0
 24 25  1  0
 25 26  2  0
 19 27  1  0
 27 28  2  0
 27 29  1  0
 29 30  2  0
 30 31  1  0
 31 32  2  0
 32 33  1  0
 32 34  1  0
 34 35  2  0
 17  2  1  0
 26 21  1  0
 35 29  1  0
 14  5  1  0
 35 17  1  0
 14  9  1  0
  1 36  1  0
  1 37  1  0
  1 38  1  0
  2 39  1  6
  3 40  1  0
  3 41  1  0
  6 42  1  0
  8 43  1  0
 10 44  1  0
 11 45  1  0
 12 46  1  0
 13 47  1  0
 18 48  1  0
 18 49  1  0
 20 50  1  0
 20 51  1  0
 22 52  1  0
 23 53  1  0
 25 54  1  0
 30 55  1  0
 31 56  1  0
 34 57  1  0
M  END
>  <RMSD>  (43) 
0.1720302151079789

$$$$

     RDKit          3D

 72 77  0  0  0  0  0  0  0  0999 V2000
    8.4979    7.3433   23.6651 C   0  0  0  0  0  0  0  0  0  0  0  0
    7.8775    6.1410   22.9903 C   0  0  1  0  0  0  0  0  0  0  0  0
    6.9079    5.3924   23.9001 C   0  0  0  0  0  0  0  0  0  0  0  0
    6.2054    4.2681   23.1675 N   0  0  2  0  0  0  0  0  0  0  0  0
    7.0413    3.0125   23.0635 C   0  0  0  0  0  0  0  0  0  0  0  0
    7.0860    2.2356   24.3867 C   0  0  0  0  0  0  0  0  0  0  0  0
    7.8570    1.0172   24.2972 N   0  0  0  0  0  0  0  0  0  0  0  0
    7.2364   -0.2361   23.9136 C   0  0  0  0  0  0  0  0  0  0  0  0
    7.9751   -0.8897   22.7255 C   0  0  2  0  0  0  0  0  0  0  0  0
    7.6360   -0.1242   21.4318 C   0  0  0  0  0  0  0  0  0  0  0  0
    8.2244    0.8179   20.9373 O   0  0  0  0  0  0  0  0  0  0  0  0
    6.5002   -0.6908   20.9075 N   0  0  0  0  0  0  0  0  0  0  0  0
    5.8525   -0.0910   19.8088 C   0  0  0  0  0  0  0  0  0  0  0  0
    6.3102   -0.3431   18.5396 C   0  0  0  0  0  0  0  0  0  0  0  0
    5.7802    0.1962   17.4155 N   0  0  0  0  0  0  0  0  0  0  0  0
    4.7708    1.0195   17.5752 C   0  0  0  0  0  0  0  0  0  0  0  0
    4.2173    1.3835   18.8378 C   0  0  0  0  0  0  0  0  0  0  0  0
    3.1312    2.2884   18.9497 C   0  0  0  0  0  0  0  0  0  0  0  0
    2.6134    2.6151   20.1701 C   0  0  0  0  0  0  0  0  0  0  0  0
    3.1559    2.0580   21.3474 C   0  0  0  0  0  0  0  0  0  0  0  0
    4.2157    1.1829   21.2693 C   0  0  0  0  0  0  0  0  0  0  0  0
    4.7690    0.8157   20.0093 C   0  0  0  0  0  0  0  0  0  0  0  0
    6.1345   -1.9525   21.5227 C   0  0  0  0  0  0  0  0  0  0  0  0
    7.3914   -2.2858   22.3436 C   0  0  2  0  0  0  0  0  0  0  0  0
    7.1690   -3.3003   23.4591 C   0  0  0  0  0  0  0  0  0  0  0  0
    9.4555   -0.8549   23.0083 C   0  0  0  0  0  0  0  0  0  0  0  0
   10.3275   -1.5936   22.1968 C   0  0  0  0  0  0  0  0  0  0  0  0
   11.6923   -1.5212   22.4055 C   0  0  0  0  0  0  0  0  0  0  0  0
   12.7541   -2.4185   21.3489 Cl  0  0  0  0  0  0  0  0  0  0  0  0
   12.2401   -0.7173   23.4059 C   0  0  0  0  0  0  0  0  0  0  0  0
   11.3844    0.0255   24.2008 C   0  0  0  0  0  0  0  0  0  0  0  0
   10.0075   -0.0078   23.9822 C   0  0  0  0  0  0  0  0  0  0  0  0
    9.1633    1.0056   24.7067 C   0  0  0  0  0  0  0  0  0  0  0  0
    9.6211    1.7578   25.5530 O   0  0  0  0  0  0  0  0  0  0  0  0
    5.5960    4.8047   21.8664 C   0  0  1  0  0  0  0  0  0  0  0  0
    4.3582    5.6669   22.1132 C   0  0  0  0  0  0  0  0  0  0  0  0
    6.6041    5.6407   21.0764 C   0  0  0  0  0  0  0  0  0  0  0  0
    7.1906    6.6513   21.8603 O   0  0  0  0  0  0  0  0  0  0  0  0
    9.0761    7.0888   24.5580 H   0  0  0  0  0  0  0  0  0  0  0  0
    7.7134    8.0527   23.9418 H   0  0  0  0  0  0  0  0  0  0  0  0
    9.1592    7.8313   22.9527 H   0  0  0  0  0  0  0  0  0  0  0  0
    8.6705    5.4559   22.6488 H   0  0  0  0  0  0  0  0  0  0  0  0
    6.1532    6.0940   24.2672 H   0  0  0  0  0  0  0  0  0  0  0  0
    7.4391    4.9965   24.7694 H   0  0  0  0  0  0  0  0  0  0  0  0
    5.3979    3.9908   23.7472 H   0  0  0  0  0  0  0  0  0  0  0  0
    8.0512    3.2695   22.7408 H   0  0  0  0  0  0  0  0  0  0  0  0
    6.6152    2.3767   22.2843 H   0  0  0  0  0  0  0  0  0  0  0  0
    7.5446    2.8199   25.1846 H   0  0  0  0  0  0  0  0  0  0  0  0
    6.0707    1.9742   24.6992 H   0  0  0  0  0  0  0  0  0  0  0  0
    7.2884   -0.9252   24.7631 H   0  0  0  0  0  0  0  0  0  0  0  0
    6.1815   -0.0597   23.6838 H   0  0  0  0  0  0  0  0  0  0  0  0
    7.1608   -1.0078   18.4034 H   0  0  0  0  0  0  0  0  0  0  0  0
    4.3152    1.4402   16.6781 H   0  0  0  0  0  0  0  0  0  0  0  0
    2.7214    2.7085   18.0367 H   0  0  0  0  0  0  0  0  0  0  0  0
    1.7780    3.3064   20.2448 H   0  0  0  0  0  0  0  0  0  0  0  0
    2.7350    2.3288   22.3114 H   0  0  0  0  0  0  0  0  0  0  0  0
    4.6101    0.7571   22.1867 H   0  0  0  0  0  0  0  0  0  0  0  0
    5.2492   -1.8460   22.1689 H   0  0  0  0  0  0  0  0  0  0  0  0
    5.9061   -2.6994   20.7542 H   0  0  0  0  0  0  0  0  0  0  0  0
    8.1147   -2.7110   21.6405 H   0  0  0  0  0  0  0  0  0  0  0  0
    8.0758   -3.4511   24.0557 H   0  0  0  0  0  0  0  0  0  0  0  0
    6.3673   -2.9858   24.1367 H   0  0  0  0  0  0  0  0  0  0  0  0
    6.8744   -4.2718   23.0439 H   0  0  0  0  0  0  0  0  0  0  0  0
    9.9625   -2.2253   21.3925 H   0  0  0  0  0  0  0  0  0  0  0  0
   13.3178   -0.6632   23.5279 H   0  0  0  0  0  0  0  0  0  0  0  0
   11.7546    0.6720   24.9890 H   0  0  0  0  0  0  0  0  0  0  0  0
    5.3228    3.9236   21.2764 H   0  0  0  0  0  0  0  0  0  0  0  0
    3.9431    5.9340   21.1325 H   0  0  0  0  0  0  0  0  0  0  0  0
    3.5796    5.1550   22.6909 H   0  0  0  0  0  0  0  0  0  0  0  0
    4.6244    6.6018   22.6176 H   0  0  0  0  0  0  0  0  0  0  0  0
    7.3651    5.0082   20.6058 H   0  0  0  0  0  0  0  0  0  0  0  0
    6.0839    6.1637   20.2670 H   0  0  0  0  0  0  0  0  0  0  0  0
  1  2  1  0
  2  3  1  0
  3  4  1  0
  4  5  1  0
  5  6  1  0
  6  7  1  0
  7  8  1  0
  9  8  1  1
  9 10  1  0
 10 11  2  0
 10 12  1  0
 12 13  1  0
 13 14  2  0
 14 15  1  0
 15 16  2  0
 16 17  1  0
 17 18  2  0
 18 19  1  0
 19 20  2  0
 20 21  1  0
 21 22  2  0
 12 23  1  0
 23 24  1  0
 24 25  1  0
  9 26  1  0
 26 27  2  0
 27 28  1  0
 28 29  1  0
 28 30  2  0
 30 31  1  0
 31 32  2  0
 32 33  1  0
 33 34  2  0
  4 35  1  0
 35 36  1  0
 35 37  1  0
 37 38  1  0
 38  2  1  0
 33  7  1  0
 24  9  1  0
 32 26  1  0
 22 13  1  0
 22 17  1  0
  1 39  1  0
  1 40  1  0
  1 41  1  0
  2 42  1  6
  3 43  1  0
  3 44  1  0
  4 45  1  1
  5 46  1  0
  5 47  1  0
  6 48  1  0
  6 49  1  0
  8 50  1  0
  8 51  1  0
 14 52  1  0
 16 53  1  0
 18 54  1  0
 19 55  1  0
 20 56  1  0
 21 57  1  0
 23 58  1  0
 23 59  1  0
 24 60  1  6
 25 61  1  0
 25 62  1  0
 25 63  1  0
 27 64  1  0
 30 65  1  0
 31 66  1  0
 35 67  1  6
 36 68  1  0
 36 69  1  0
 36 70  1  0
 37 71  1  0
 37 72  1  0
M  CHG  1   4   1
M  END
>  <RMSD>  (44) 
0.18485734623584377

$$$$

     RDKit          3D

 47 50  0  0  0  0  0  0  0  0999 V2000
   10.2863    1.8987   23.0229 C   0  0  0  0  0  0  0  0  0  0  0  0
   10.1149    0.5881   23.7861 C   0  0  1  0  0  0  0  0  0  0  0  0
    8.9927    0.6769   24.8263 C   0  0  0  0  0  0  0  0  0  0  0  0
    7.6996    0.3488   24.0392 C   0  0  2  0  0  0  0  0  0  0  0  0
    6.7197   -0.4771   24.8423 C   0  0  0  0  0  0  0  0  0  0  0  0
    5.5314    0.0789   25.3063 C   0  0  0  0  0  0  0  0  0  0  0  0
    4.6279   -0.6893   26.0306 C   0  0  0  0  0  0  0  0  0  0  0  0
    4.9091   -2.0217   26.3080 C   0  0  0  0  0  0  0  0  0  0  0  0
    6.1049   -2.5808   25.8672 C   0  0  0  0  0  0  0  0  0  0  0  0
    7.0055   -1.8101   25.1447 C   0  0  0  0  0  0  0  0  0  0  0  0
    8.1251   -0.3915   22.8175 N   0  0  0  0  0  0  0  0  0  0  0  0
    7.5381    0.0152   21.5683 C   0  0  0  0  0  0  0  0  0  0  0  0
    7.9178    1.0067   20.9851 O   0  0  0  0  0  0  0  0  0  0  0  0
    6.4208   -0.8839   21.0058 C   0  0  0  0  0  0  0  0  0  0  0  0
    5.7507   -0.2226   19.8358 C   0  0  0  0  0  0  0  0  0  0  0  0
    6.2266   -0.4280   18.5706 C   0  0  0  0  0  0  0  0  0  0  0  0
    5.7561    0.1702   17.4485 N   0  0  0  0  0  0  0  0  0  0  0  0
    4.7729    1.0207   17.5854 C   0  0  0  0  0  0  0  0  0  0  0  0
    4.1941    1.3610   18.8366 C   0  0  0  0  0  0  0  0  0  0  0  0
    3.1465    2.3118   18.9464 C   0  0  0  0  0  0  0  0  0  0  0  0
    2.6277    2.6341   20.1709 C   0  0  0  0  0  0  0  0  0  0  0  0
    3.1365    2.0159   21.3383 C   0  0  0  0  0  0  0  0  0  0  0  0
    4.1469    1.0901   21.2567 C   0  0  0  0  0  0  0  0  0  0  0  0
    4.7043    0.7296   20.0021 C   0  0  0  0  0  0  0  0  0  0  0  0
    9.5896   -0.5274   22.8782 C   0  0  0  0  0  0  0  0  0  0  0  0
   10.7031    2.6736   23.6708 H   0  0  0  0  0  0  0  0  0  0  0  0
   10.9663    1.7548   22.1782 H   0  0  0  0  0  0  0  0  0  0  0  0
    9.3433    2.2610   22.6021 H   0  0  0  0  0  0  0  0  0  0  0  0
   11.0807    0.3103   24.2469 H   0  0  0  0  0  0  0  0  0  0  0  0
    9.1503   -0.0474   25.6323 H   0  0  0  0  0  0  0  0  0  0  0  0
    8.9295    1.6608   25.3022 H   0  0  0  0  0  0  0  0  0  0  0  0
    7.2127    1.3013   23.7694 H   0  0  0  0  0  0  0  0  0  0  0  0
    5.3159    1.1231   25.0896 H   0  0  0  0  0  0  0  0  0  0  0  0
    3.6983   -0.2403   26.3657 H   0  0  0  0  0  0  0  0  0  0  0  0
    4.1972   -2.6207   26.8669 H   0  0  0  0  0  0  0  0  0  0  0  0
    6.3332   -3.6208   26.0835 H   0  0  0  0  0  0  0  0  0  0  0  0
    7.9392   -2.2581   24.8078 H   0  0  0  0  0  0  0  0  0  0  0  0
    6.8853   -1.8249   20.6799 H   0  0  0  0  0  0  0  0  0  0  0  0
    5.7155   -1.1718   21.7968 H   0  0  0  0  0  0  0  0  0  0  0  0
    7.0552   -1.1167   18.4007 H   0  0  0  0  0  0  0  0  0  0  0  0
    4.3961    1.4912   16.6739 H   0  0  0  0  0  0  0  0  0  0  0  0
    2.7780    2.7892   18.0383 H   0  0  0  0  0  0  0  0  0  0  0  0
    1.8348    3.3740   20.2565 H   0  0  0  0  0  0  0  0  0  0  0  0
    2.7224    2.2823   22.3072 H   0  0  0  0  0  0  0  0  0  0  0  0
    4.5350    0.6264   22.1600 H   0  0  0  0  0  0  0  0  0  0  0  0
   10.0533   -0.5269   21.8849 H   0  0  0  0  0  0  0  0  0  0  0  0
    9.8172   -1.4926   23.3547 H   0  0  0  0  0  0  0  0  0  0  0  0
  1  2  1  0
  2  3  1  0
  3  4  1  0
  4  5  1  0
  5  6  2  0
  6  7  1  0
  7  8  2  0
  8  9  1  0
  9 10  2  0
  4 11  1  0
 11 12  1  0
 12 13  2  0
 12 14  1  0
 14 15  1  0
 15 16  2  0
 16 17  1  0
 17 18  2  0
 18 19  1  0
 19 20  2  0
 20 21  1  0
 21 22  2  0
 22 23  1  0
 23 24  2  0
 11 25  1  0
 25  2  1  0
 10  5  1  0
 24 15  1  0
 24 19  1  0
  1 26  1  0
  1 27  1  0
  1 28  1  0
  2 29  1  1
  3 30  1  0
  3 31  1  0
  4 32  1  6
  6 33  1  0
  7 34  1  0
  8 35  1  0
  9 36  1  0
 10 37  1  0
 14 38  1  0
 14 39  1  0
 16 40  1  0
 18 41  1  0
 20 42  1  0
 21 43  1  0
 22 44  1  0
 23 45  1  0
 25 46  1  0
 25 47  1  0
M  END
>  <RMSD>  (45) 
0.04865391284363875

$$$$

     RDKit          3D

 64 68  0  0  0  0  0  0  0  0999 V2000
    4.0668   -4.1939   24.0941 C   0  0  0  0  0  0  0  0  0  0  0  0
    4.7633   -4.7625   22.8728 C   0  0  0  0  0  0  0  0  0  0  0  0
    6.5347   -4.7862   22.9957 S   0  0  0  0  0  0  0  0  0  0  0  0
    6.9887   -5.0816   21.6440 O   0  0  0  0  0  0  0  0  0  0  0  0
    6.8814   -5.6279   24.1264 O   0  0  0  0  0  0  0  0  0  0  0  0
    7.0159   -3.2308   23.4511 N   0  0  0  0  0  0  0  0  0  0  0  0
    7.3497   -2.2890   22.3752 C   0  0  1  0  0  0  0  0  0  0  0  0
    6.1289   -1.9367   21.5157 C   0  0  0  0  0  0  0  0  0  0  0  0
    6.5260   -0.6683   20.9394 N   0  0  0  0  0  0  0  0  0  0  0  0
    5.8838   -0.0590   19.8262 C   0  0  0  0  0  0  0  0  0  0  0  0
    6.3076   -0.3418   18.5535 C   0  0  0  0  0  0  0  0  0  0  0  0
    5.7625    0.1786   17.4225 N   0  0  0  0  0  0  0  0  0  0  0  0
    4.7596    1.0120   17.5707 C   0  0  0  0  0  0  0  0  0  0  0  0
    4.2039    1.3863   18.8299 C   0  0  0  0  0  0  0  0  0  0  0  0
    3.1160    2.2952   18.9422 C   0  0  0  0  0  0  0  0  0  0  0  0
    2.6024    2.6138   20.1704 C   0  0  0  0  0  0  0  0  0  0  0  0
    3.1447    2.0385   21.3431 C   0  0  0  0  0  0  0  0  0  0  0  0
    4.2037    1.1685   21.2601 C   0  0  0  0  0  0  0  0  0  0  0  0
    4.7724    0.8281   20.0007 C   0  0  0  0  0  0  0  0  0  0  0  0
    7.5361   -0.0347   21.6309 C   0  0  0  0  0  0  0  0  0  0  0  0
    8.0042    1.0446   21.3228 O   0  0  0  0  0  0  0  0  0  0  0  0
    7.9196   -0.9252   22.8424 C   0  0  1  0  0  0  0  0  0  0  0  0
    7.2002   -0.4094   24.1115 C   0  0  0  0  0  0  0  0  0  0  0  0
    7.6783    0.9152   24.4816 N   0  0  0  0  0  0  0  0  0  0  0  0
    6.7847    1.8053   25.1959 C   0  0  0  0  0  0  0  0  0  0  0  0
    6.2212    3.0120   24.4284 C   0  0  0  0  0  0  0  0  0  0  0  0
    5.3401    3.6922   24.9416 O   0  0  0  0  0  0  0  0  0  0  0  0
    6.7204    3.2576   23.1992 N   0  0  0  0  0  0  0  0  0  0  0  0
    6.1142    4.2677   22.3512 C   0  0  0  0  0  0  0  0  0  0  0  0
    9.0058    1.2471   24.4463 C   0  0  0  0  0  0  0  0  0  0  0  0
    9.4010    2.3236   24.8794 O   0  0  0  0  0  0  0  0  0  0  0  0
    9.9217    0.2353   23.8224 C   0  0  0  0  0  0  0  0  0  0  0  0
   11.2961    0.4128   23.9736 C   0  0  0  0  0  0  0  0  0  0  0  0
   12.1866   -0.4917   23.4254 C   0  0  0  0  0  0  0  0  0  0  0  0
   11.6768   -1.5855   22.7240 C   0  0  0  0  0  0  0  0  0  0  0  0
   12.7824   -2.7262   22.0061 Cl  0  0  0  0  0  0  0  0  0  0  0  0
   10.3145   -1.7769   22.5665 C   0  0  0  0  0  0  0  0  0  0  0  0
    9.4094   -0.8553   23.1026 C   0  0  0  0  0  0  0  0  0  0  0  0
    2.9843   -4.2630   23.9486 H   0  0  0  0  0  0  0  0  0  0  0  0
    4.3390   -4.7611   24.9895 H   0  0  0  0  0  0  0  0  0  0  0  0
    4.3366   -3.1419   24.2409 H   0  0  0  0  0  0  0  0  0  0  0  0
    4.5298   -5.8213   22.7022 H   0  0  0  0  0  0  0  0  0  0  0  0
    4.5446   -4.2251   21.9473 H   0  0  0  0  0  0  0  0  0  0  0  0
    7.7866   -3.3791   24.1024 H   0  0  0  0  0  0  0  0  0  0  0  0
    8.0870   -2.7455   21.7109 H   0  0  0  0  0  0  0  0  0  0  0  0
    5.9273   -2.6727   20.7309 H   0  0  0  0  0  0  0  0  0  0  0  0
    5.2262   -1.8485   22.1438 H   0  0  0  0  0  0  0  0  0  0  0  0
    7.1395   -1.0278   18.4038 H   0  0  0  0  0  0  0  0  0  0  0  0
    4.3399    1.4370   16.6583 H   0  0  0  0  0  0  0  0  0  0  0  0
    2.7184    2.7358   18.0307 H   0  0  0  0  0  0  0  0  0  0  0  0
    1.7855    3.3247   20.2592 H   0  0  0  0  0  0  0  0  0  0  0  0
    2.7486    2.3149   22.3182 H   0  0  0  0  0  0  0  0  0  0  0  0
    4.6222    0.7312   22.1623 H   0  0  0  0  0  0  0  0  0  0  0  0
    7.3550   -1.1252   24.9285 H   0  0  0  0  0  0  0  0  0  0  0  0
    6.1258   -0.3320   23.9153 H   0  0  0  0  0  0  0  0  0  0  0  0
    5.9108    1.2383   25.5285 H   0  0  0  0  0  0  0  0  0  0  0  0
    7.2851    2.1950   26.0892 H   0  0  0  0  0  0  0  0  0  0  0  0
    7.5156    2.7443   22.8454 H   0  0  0  0  0  0  0  0  0  0  0  0
    6.6738    4.2929   21.4106 H   0  0  0  0  0  0  0  0  0  0  0  0
    5.0673    4.0136   22.1343 H   0  0  0  0  0  0  0  0  0  0  0  0
    6.1379    5.2575   22.8232 H   0  0  0  0  0  0  0  0  0  0  0  0
   11.6344    1.2833   24.5254 H   0  0  0  0  0  0  0  0  0  0  0  0
   13.2594   -0.3576   23.5246 H   0  0  0  0  0  0  0  0  0  0  0  0
    9.9663   -2.6490   22.0258 H   0  0  0  0  0  0  0  0  0  0  0  0
  1  2  1  0
  2  3  1  0
  3  4  2  0
  3  5  2  0
  3  6  1  0
  6  7  1  0
  7  8  1  0
  8  9  1  0
  9 10  1  0
 10 11  2  0
 11 12  1  0
 12 13  2  0
 13 14  1  0
 14 15  2  0
 15 16  1  0
 16 17  2  0
 17 18  1  0
 18 19  2  0
  9 20  1  0
 20 21  2  0
 20 22  1  0
 22 23  1  1
 23 24  1  0
 24 25  1  0
 25 26  1  0
 26 27  2  0
 26 28  1  0
 28 29  1  0
 24 30  1  0
 30 31  2  0
 30 32  1  0
 32 33  2  0
 33 34  1  0
 34 35  2  0
 35 36  1  0
 35 37  1  0
 37 38  2  0
 22  7  1  0
 38 32  1  0
 19 10  1  0
 38 22  1  0
 19 14  1  0
  1 39  1  0
  1 40  1  0
  1 41  1  0
  2 42  1  0
  2 43  1  0
  6 44  1  0
  7 45  1  6
  8 46  1  0
  8 47  1  0
 11 48  1  0
 13 49  1  0
 15 50  1  0
 16 51  1  0
 17 52  1  0
 18 53  1  0
 23 54  1  0
 23 55  1  0
 25 56  1  0
 25 57  1  0
 28 58  1  0
 29 59  1  0
 29 60  1  0
 29 61  1  0
 33 62  1  0
 34 63  1  0
 37 64  1  0
M  END
>  <RMSD>  (46) 
0.17481757002715478

$$$$

     RDKit          3D

 58 62  0  0  0  0  0  0  0  0999 V2000
    6.1315    4.2070   22.3229 C   0  0  0  0  0  0  0  0  0  0  0  0
    6.7851    3.1500   23.1021 N   0  0  0  0  0  0  0  0  0  0  0  0
    6.1758    2.9800   24.4423 C   0  0  0  0  0  0  0  0  0  0  0  0
    6.7524    1.7823   25.2382 C   0  0  0  0  0  0  0  0  0  0  0  0
    7.6502    0.9145   24.4978 N   0  0  0  0  0  0  0  0  0  0  0  0
    7.1751   -0.3999   24.1150 C   0  0  0  0  0  0  0  0  0  0  0  0
    7.8907   -0.9099   22.8430 C   0  0  2  0  0  0  0  0  0  0  0  0
    7.4303    0.0088   21.6885 C   0  0  0  0  0  0  0  0  0  0  0  0
    7.7100    1.1895   21.5375 O   0  0  0  0  0  0  0  0  0  0  0  0
    6.5336   -0.6756   20.9154 N   0  0  0  0  0  0  0  0  0  0  0  0
    5.8751   -0.0651   19.8186 C   0  0  0  0  0  0  0  0  0  0  0  0
    6.3033   -0.3489   18.5468 C   0  0  0  0  0  0  0  0  0  0  0  0
    5.7696    0.1829   17.4214 N   0  0  0  0  0  0  0  0  0  0  0  0
    4.7659    1.0179   17.5712 C   0  0  0  0  0  0  0  0  0  0  0  0
    4.2153    1.3861   18.8351 C   0  0  0  0  0  0  0  0  0  0  0  0
    3.1260    2.2922   18.9459 C   0  0  0  0  0  0  0  0  0  0  0  0
    2.6052    2.6146   20.1702 C   0  0  0  0  0  0  0  0  0  0  0  0
    3.1470    2.0457   21.3428 C   0  0  0  0  0  0  0  0  0  0  0  0
    4.2104    1.1777   21.2658 C   0  0  0  0  0  0  0  0  0  0  0  0
    4.7779    0.8286   20.0045 C   0  0  0  0  0  0  0  0  0  0  0  0
    6.1307   -1.9382   21.5048 C   0  0  0  0  0  0  0  0  0  0  0  0
    7.3394   -2.2873   22.3831 C   0  0  2  0  0  0  0  0  0  0  0  0
    7.0537   -3.2973   23.4911 C   0  0  0  0  0  0  0  0  0  0  0  0
    9.3851   -0.8368   23.0955 C   0  0  0  0  0  0  0  0  0  0  0  0
   10.2980   -1.7729   22.5880 C   0  0  0  0  0  0  0  0  0  0  0  0
   11.6496   -1.5741   22.7709 C   0  0  0  0  0  0  0  0  0  0  0  0
   12.5119   -2.4612   22.2432 F   0  0  0  0  0  0  0  0  0  0  0  0
   12.1608   -0.4831   23.4604 C   0  0  0  0  0  0  0  0  0  0  0  0
   11.2671    0.4270   23.9898 C   0  0  0  0  0  0  0  0  0  0  0  0
    9.8921    0.2546   23.8211 C   0  0  0  0  0  0  0  0  0  0  0  0
    8.9676    1.2667   24.4307 C   0  0  0  0  0  0  0  0  0  0  0  0
    9.3629    2.3642   24.8239 O   0  0  0  0  0  0  0  0  0  0  0  0
    6.5815    4.2750   21.3323 H   0  0  0  0  0  0  0  0  0  0  0  0
    5.0606    3.9930   22.2049 H   0  0  0  0  0  0  0  0  0  0  0  0
    6.2420    5.1737   22.8302 H   0  0  0  0  0  0  0  0  0  0  0  0
    7.7839    3.3799   23.2414 H   0  0  0  0  0  0  0  0  0  0  0  0
    6.7698    2.2601   22.5782 H   0  0  0  0  0  0  0  0  0  0  0  0
    5.0867    2.8706   24.3476 H   0  0  0  0  0  0  0  0  0  0  0  0
    6.3400    3.8945   25.0261 H   0  0  0  0  0  0  0  0  0  0  0  0
    7.2999    2.1345   26.1164 H   0  0  0  0  0  0  0  0  0  0  0  0
    5.9373    1.1546   25.6171 H   0  0  0  0  0  0  0  0  0  0  0  0
    7.3460   -1.1049   24.9375 H   0  0  0  0  0  0  0  0  0  0  0  0
    6.0973   -0.3254   23.9213 H   0  0  0  0  0  0  0  0  0  0  0  0
    7.1410   -1.0293   18.4061 H   0  0  0  0  0  0  0  0  0  0  0  0
    4.3257    1.4426   16.6681 H   0  0  0  0  0  0  0  0  0  0  0  0
    2.7212    2.7244   18.0371 H   0  0  0  0  0  0  0  0  0  0  0  0
    1.7787    3.3160   20.2507 H   0  0  0  0  0  0  0  0  0  0  0  0
    2.7362    2.3168   22.3130 H   0  0  0  0  0  0  0  0  0  0  0  0
    4.6046    0.7412   22.1785 H   0  0  0  0  0  0  0  0  0  0  0  0
    5.2214   -1.8264   22.1177 H   0  0  0  0  0  0  0  0  0  0  0  0
    5.9249   -2.6790   20.7303 H   0  0  0  0  0  0  0  0  0  0  0  0
    8.0870   -2.7028   21.7026 H   0  0  0  0  0  0  0  0  0  0  0  0
    6.7686   -4.2687   23.0786 H   0  0  0  0  0  0  0  0  0  0  0  0
    7.9291   -3.4507   24.1331 H   0  0  0  0  0  0  0  0  0  0  0  0
    6.2290   -2.9656   24.1322 H   0  0  0  0  0  0  0  0  0  0  0  0
    9.9888   -2.6563   22.0426 H   0  0  0  0  0  0  0  0  0  0  0  0
   13.2349   -0.3724   23.5575 H   0  0  0  0  0  0  0  0  0  0  0  0
   11.6167    1.2919   24.5418 H   0  0  0  0  0  0  0  0  0  0  0  0
  1  2  1  0
  2  3  1  0
  3  4  1  0
  4  5  1  0
  5  6  1  0
  7  6  1  1
  7  8  1  0
  8  9  2  0
  8 10  1  0
 10 11  1  0
 11 12  2  0
 12 13  1  0
 13 14  2  0
 14 15  1  0
 15 16  2  0
 16 17  1  0
 17 18  2  0
 18 19  1  0
 19 20  2  0
 10 21  1  0
 21 22  1  0
 22 23  1  0
  7 24  1  0
 24 25  2  0
 25 26  1  0
 26 27  1  0
 26 28  2  0
 28 29  1  0
 29 30  2  0
 30 31  1  0
 31 32  2  0
 31  5  1  0
 22  7  1  0
 30 24  1  0
 20 11  1  0
 20 15  1  0
  1 33  1  0
  1 34  1  0
  1 35  1  0
  2 36  1  0
  2 37  1  0
  3 38  1  0
  3 39  1  0
  4 40  1  0
  4 41  1  0
  6 42  1  0
  6 43  1  0
 12 44  1  0
 14 45  1  0
 16 46  1  0
 17 47  1  0
 18 48  1  0
 19 49  1  0
 21 50  1  0
 21 51  1  0
 22 52  1  6
 23 53  1  0
 23 54  1  0
 23 55  1  0
 25 56  1  0
 28 57  1  0
 29 58  1  0
M  CHG  1   2   1
M  END
>  <RMSD>  (47) 
0.17456423154020742

$$$$

     RDKit          3D

 69 74  0  0  0  0  0  0  0  0999 V2000
    6.2762    4.1143   22.2459 C   0  0  0  0  0  0  0  0  0  0  0  0
    6.8848    3.2244   23.2437 N   0  0  0  0  0  0  0  0  0  0  0  0
    5.9981    2.8251   24.3629 C   0  0  0  0  0  0  0  0  0  0  0  0
    6.7533    1.9103   25.3435 C   0  0  0  0  0  0  0  0  0  0  0  0
    7.6555    0.9826   24.6783 N   0  0  0  0  0  0  0  0  0  0  0  0
    7.1503   -0.2917   24.2018 C   0  0  0  0  0  0  0  0  0  0  0  0
    7.8660   -0.7684   22.9046 C   0  0  2  0  0  0  0  0  0  0  0  0
    7.3920    0.0973   21.7163 C   0  0  0  0  0  0  0  0  0  0  0  0
    7.6637    1.2756   21.5180 O   0  0  0  0  0  0  0  0  0  0  0  0
    6.5427   -0.6300   20.9315 N   0  0  0  0  0  0  0  0  0  0  0  0
    5.8821   -0.0517   19.8183 C   0  0  0  0  0  0  0  0  0  0  0  0
    6.2928   -0.3618   18.5484 C   0  0  0  0  0  0  0  0  0  0  0  0
    5.7606    0.1713   17.4211 N   0  0  0  0  0  0  0  0  0  0  0  0
    4.7710    1.0224   17.5713 C   0  0  0  0  0  0  0  0  0  0  0  0
    4.2202    1.3958   18.8325 C   0  0  0  0  0  0  0  0  0  0  0  0
    3.1265    2.2968   18.9448 C   0  0  0  0  0  0  0  0  0  0  0  0
    2.6045    2.6103   20.1713 C   0  0  0  0  0  0  0  0  0  0  0  0
    3.1468    2.0389   21.3452 C   0  0  0  0  0  0  0  0  0  0  0  0
    4.2087    1.1725   21.2642 C   0  0  0  0  0  0  0  0  0  0  0  0
    4.7837    0.8389   20.0022 C   0  0  0  0  0  0  0  0  0  0  0  0
    6.1821   -1.9097   21.5057 C   0  0  0  0  0  0  0  0  0  0  0  0
    7.3631   -2.1556   22.4524 C   0  0  2  0  0  0  0  0  0  0  0  0
    7.0685   -3.1726   23.5394 C   0  0  0  0  0  0  0  0  0  0  0  0
    6.9790   -4.3990   22.8540 O   0  0  0  0  0  0  0  0  0  0  0  0
    6.7512   -5.5831   23.5878 C   0  0  0  0  0  0  0  0  0  0  0  0
    7.0317   -6.6466   22.6123 C   0  0  0  0  0  0  0  0  0  0  0  0
    5.3095   -7.6561   21.7013 F   0  0  0  0  0  0  0  0  0  0  0  0
    7.2601   -7.9314   22.9588 C   0  0  0  0  0  0  0  0  0  0  0  0
    7.3964   -7.9668   23.1516 C   0  0  0  0  0  0  0  0  0  0  0  0
    9.3671   -0.6746   23.1228 C   0  0  0  0  0  0  0  0  0  0  0  0
   10.2985   -1.5859   22.5975 C   0  0  0  0  0  0  0  0  0  0  0  0
   11.6513   -1.3977   22.8210 C   0  0  0  0  0  0  0  0  0  0  0  0
   12.7859   -2.5578   22.1852 Cl  0  0  0  0  0  0  0  0  0  0  0  0
   12.1378   -0.2988   23.5266 C   0  0  0  0  0  0  0  0  0  0  0  0
   11.2292    0.6154   24.0195 C   0  0  0  0  0  0  0  0  0  0  0  0
    9.8619    0.4176   23.8475 C   0  0  0  0  0  0  0  0  0  0  0  0
    8.9266    1.4060   24.4634 C   0  0  0  0  0  0  0  0  0  0  0  0
    9.2798    2.5547   24.7415 O   0  0  0  0  0  0  0  0  0  0  0  0
    5.2607    3.7763   22.0135 H   0  0  0  0  0  0  0  0  0  0  0  0
    6.8597    4.0768   21.3237 H   0  0  0  0  0  0  0  0  0  0  0  0
    6.2238    5.1470   22.6025 H   0  0  0  0  0  0  0  0  0  0  0  0
    7.7450    3.6354   23.6401 H   0  0  0  0  0  0  0  0  0  0  0  0
    7.2016    2.3711   22.7458 H   0  0  0  0  0  0  0  0  0  0  0  0
    5.6310    3.7074   24.9017 H   0  0  0  0  0  0  0  0  0  0  0  0
    5.1130    2.3129   23.9610 H   0  0  0  0  0  0  0  0  0  0  0  0
    7.3805    2.5167   26.0005 H   0  0  0  0  0  0  0  0  0  0  0  0
    6.0519    1.3474   25.9689 H   0  0  0  0  0  0  0  0  0  0  0  0
    6.0769   -0.1817   24.0094 H   0  0  0  0  0  0  0  0  0  0  0  0
    7.2791   -1.0460   24.9862 H   0  0  0  0  0  0  0  0  0  0  0  0
    7.1123   -1.0645   18.4026 H   0  0  0  0  0  0  0  0  0  0  0  0
    4.3460    1.4567   16.6649 H   0  0  0  0  0  0  0  0  0  0  0  0
    2.7193    2.7301   18.0349 H   0  0  0  0  0  0  0  0  0  0  0  0
    1.7710    3.3031   20.2526 H   0  0  0  0  0  0  0  0  0  0  0  0
    2.7353    2.3097   22.3159 H   0  0  0  0  0  0  0  0  0  0  0  0
    4.6135    0.7293   22.1695 H   0  0  0  0  0  0  0  0  0  0  0  0
    5.2259   -1.8685   22.0525 H   0  0  0  0  0  0  0  0  0  0  0  0
    6.0836   -2.6658   20.7245 H   0  0  0  0  0  0  0  0  0  0  0  0
    8.1375   -2.5878   21.8228 H   0  0  0  0  0  0  0  0  0  0  0  0
    6.1303   -2.9243   24.0665 H   0  0  0  0  0  0  0  0  0  0  0  0
    7.8721   -3.1750   24.2960 H   0  0  0  0  0  0  0  0  0  0  0  0
    5.7007   -5.5555   23.9671 H   0  0  0  0  0  0  0  0  0  0  0  0
    7.4080   -5.5940   24.4965 H   0  0  0  0  0  0  0  0  0  0  0  0
    8.2124   -8.7219   22.5422 H   0  0  0  0  0  0  0  0  0  0  0  0
    6.4896   -8.8383   23.1164 H   0  0  0  0  0  0  0  0  0  0  0  0
    6.1979   -7.2033   22.0110 H   0  0  0  0  0  0  0  0  0  0  0  0
    8.1449   -7.7100   24.5877 H   0  0  0  0  0  0  0  0  0  0  0  0
    9.9945   -2.4410   22.0032 H   0  0  0  0  0  0  0  0  0  0  0  0
   13.2042   -0.1725   23.6762 H   0  0  0  0  0  0  0  0  0  0  0  0
   11.5513    1.5016   24.5530 H   0  0  0  0  0  0  0  0  0  0  0  0
  1  2  1  0
  2  3  1  0
  3  4  1  0
  4  5  1  0
  5  6  1  0
  7  6  1  1
  7  8  1  0
  8  9  2  0
  8 10  1  0
 10 11  1  0
 11 12  2  0
 12 13  1  0
 13 14  2  0
 14 15  1  0
 15 16  2  0
 16 17  1  0
 17 18  2  0
 18 19  1  0
 19 20  2  0
 10 21  1  0
 21 22  1  0
 22 23  1  0
 23 24  1  0
 24 25  1  0
 25 26  1  0
 26 27  1  0
 26 28  1  0
 28 29  1  0
  7 30  1  0
 30 31  2  0
 31 32  1  0
 32 33  1  0
 32 34  2  0
 34 35  1  0
 35 36  2  0
 36 37  1  0
 37 38  2  0
 37  5  1  0
 22  7  1  0
 29 26  1  0
 36 30  1  0
 20 11  1  0
 20 15  1  0
  1 39  1  0
  1 40  1  0
  1 41  1  0
  2 42  1  0
  2 43  1  0
  3 44  1  0
  3 45  1  0
  4 46  1  0
  4 47  1  0
  6 48  1  0
  6 49  1  0
 12 50  1  0
 14 51  1  0
 16 52  1  0
 17 53  1  0
 18 54  1  0
 19 55  1  0
 21 56  1  0
 21 57  1  0
 22 58  1  6
 23 59  1  0
 23 60  1  0
 25 61  1  0
 25 62  1  0
 28 63  1  0
 28 64  1  0
 29 65  1  0
 29 66  1  0
 31 67  1  0
 34 68  1  0
 35 69  1  0
M  CHG  1   2   1
M  END
>  <RMSD>  (48) 
0.16159389125779391

$$$$

     RDKit          3D

 55 60  0  0  0  0  0  0  0  0999 V2000
    7.0648   -3.2845   23.5072 C   0  0  0  0  0  0  0  0  0  0  0  0
    7.3525   -2.2846   22.3977 C   0  0  1  0  0  0  0  0  0  0  0  0
    6.1401   -1.9244   21.5324 C   0  0  0  0  0  0  0  0  0  0  0  0
    6.5336   -0.6593   20.9404 N   0  0  0  0  0  0  0  0  0  0  0  0
    5.8834   -0.0575   19.8321 C   0  0  0  0  0  0  0  0  0  0  0  0
    6.3036   -0.3478   18.5589 C   0  0  0  0  0  0  0  0  0  0  0  0
    5.7646    0.1736   17.4286 N   0  0  0  0  0  0  0  0  0  0  0  0
    4.7617    1.0125   17.5665 C   0  0  0  0  0  0  0  0  0  0  0  0
    4.2022    1.3805   18.8251 C   0  0  0  0  0  0  0  0  0  0  0  0
    3.1182    2.2985   18.9380 C   0  0  0  0  0  0  0  0  0  0  0  0
    2.6115    2.6223   20.1683 C   0  0  0  0  0  0  0  0  0  0  0  0
    3.1491    2.0402   21.3403 C   0  0  0  0  0  0  0  0  0  0  0  0
    4.2063    1.1685   21.2613 C   0  0  0  0  0  0  0  0  0  0  0  0
    4.7641    0.8214   19.9995 C   0  0  0  0  0  0  0  0  0  0  0  0
    7.5434   -0.0216   21.6305 C   0  0  0  0  0  0  0  0  0  0  0  0
    8.0093    1.0524   21.3201 O   0  0  0  0  0  0  0  0  0  0  0  0
    7.9250   -0.9105   22.8443 C   0  0  1  0  0  0  0  0  0  0  0  0
    7.2115   -0.3757   24.1150 C   0  0  0  0  0  0  0  0  0  0  0  0
    7.6863    0.9400   24.5049 N   0  0  0  0  0  0  0  0  0  0  0  0
    6.7615    1.8206   25.1923 C   0  0  0  0  0  0  0  0  0  0  0  0
    6.1283    2.8278   24.2919 C   0  0  0  0  0  0  0  0  0  0  0  0
    6.7270    3.4844   23.2771 C   0  0  0  0  0  0  0  0  0  0  0  0
    5.8165    4.3573   22.7568 O   0  0  0  0  0  0  0  0  0  0  0  0
    4.7061    4.1627   23.4925 C   0  0  0  0  0  0  0  0  0  0  0  0
    4.8148    3.2604   24.4116 N   0  0  0  0  0  0  0  0  0  0  0  0
    9.0065    1.2873   24.4337 C   0  0  0  0  0  0  0  0  0  0  0  0
    9.4186    2.3639   24.8473 O   0  0  0  0  0  0  0  0  0  0  0  0
    9.9229    0.2566   23.8258 C   0  0  0  0  0  0  0  0  0  0  0  0
   11.3016    0.4296   23.9759 C   0  0  0  0  0  0  0  0  0  0  0  0
   12.1916   -0.4783   23.4362 C   0  0  0  0  0  0  0  0  0  0  0  0
   11.6691   -1.5697   22.7522 C   0  0  0  0  0  0  0  0  0  0  0  0
   12.5153   -2.4599   22.2095 F   0  0  0  0  0  0  0  0  0  0  0  0
   10.3140   -1.7734   22.5837 C   0  0  0  0  0  0  0  0  0  0  0  0
    9.4136   -0.8447   23.1151 C   0  0  0  0  0  0  0  0  0  0  0  0
    6.2444   -2.9443   24.1433 H   0  0  0  0  0  0  0  0  0  0  0  0
    6.7834   -4.2604   23.1031 H   0  0  0  0  0  0  0  0  0  0  0  0
    7.9327   -3.4313   24.1576 H   0  0  0  0  0  0  0  0  0  0  0  0
    8.0756   -2.7386   21.7155 H   0  0  0  0  0  0  0  0  0  0  0  0
    5.9490   -2.6684   20.7567 H   0  0  0  0  0  0  0  0  0  0  0  0
    5.2321   -1.8507   22.1555 H   0  0  0  0  0  0  0  0  0  0  0  0
    7.1390   -1.0280   18.4071 H   0  0  0  0  0  0  0  0  0  0  0  0
    4.3342    1.4416   16.6572 H   0  0  0  0  0  0  0  0  0  0  0  0
    2.7068    2.7466   18.0357 H   0  0  0  0  0  0  0  0  0  0  0  0
    1.7880    3.3273   20.2562 H   0  0  0  0  0  0  0  0  0  0  0  0
    2.7408    2.2969   22.3149 H   0  0  0  0  0  0  0  0  0  0  0  0
    4.6295    0.7302   22.1611 H   0  0  0  0  0  0  0  0  0  0  0  0
    7.3726   -1.0697   24.9512 H   0  0  0  0  0  0  0  0  0  0  0  0
    6.1341   -0.3068   23.9314 H   0  0  0  0  0  0  0  0  0  0  0  0
    7.3084    2.3334   25.9900 H   0  0  0  0  0  0  0  0  0  0  0  0
    5.9780    1.2186   25.6590 H   0  0  0  0  0  0  0  0  0  0  0  0
    7.7183    3.4654   22.8508 H   0  0  0  0  0  0  0  0  0  0  0  0
    3.8309    4.7543   23.2452 H   0  0  0  0  0  0  0  0  0  0  0  0
   11.6662    1.2889   24.5260 H   0  0  0  0  0  0  0  0  0  0  0  0
   13.2691   -0.3565   23.5230 H   0  0  0  0  0  0  0  0  0  0  0  0
    9.9833   -2.6547   22.0440 H   0  0  0  0  0  0  0  0  0  0  0  0
  1  2  1  0
  2  3  1  0
  3  4  1  0
  4  5  1  0
  5  6  2  0
  6  7  1  0
  7  8  2  0
  8  9  1  0
  9 10  2  0
 10 11  1  0
 11 12  2  0
 12 13  1  0
 13 14  2  0
  4 15  1  0
 15 16  2  0
 15 17  1  0
 17 18  1  1
 18 19  1  0
 19 20  1  0
 20 21  1  0
 21 22  2  0
 22 23  1  0
 23 24  1  0
 24 25  2  0
 19 26  1  0
 26 27  2  0
 26 28  1  0
 28 29  2  0
 29 30  1  0
 30 31  2  0
 31 32  1  0
 31 33  1  0
 33 34  2  0
 17  2  1  0
 25 21  1  0
 34 28  1  0
 14  5  1  0
 34 17  1  0
 14  9  1  0
  1 35  1  0
  1 36  1  0
  1 37  1  0
  2 38  1  6
  3 39  1  0
  3 40  1  0
  6 41  1  0
  8 42  1  0
 10 43  1  0
 11 44  1  0
 12 45  1  0
 13 46  1  0
 18 47  1  0
 18 48  1  0
 20 49  1  0
 20 50  1  0
 22 51  1  0
 24 52  1  0
 29 53  1  0
 30 54  1  0
 33 55  1  0
M  END
>  <RMSD>  (49) 
0.17136069574321078

$$$$

     RDKit          3D

 72 77  0  0  0  0  0  0  0  0999 V2000
    4.5803    6.4575   25.0061 C   0  0  0  0  0  0  0  0  0  0  0  0
    5.8429    6.5893   24.1552 C   0  0  1  0  0  0  0  0  0  0  0  0
    6.7263    5.3401   24.0936 C   0  0  0  0  0  0  0  0  0  0  0  0
    6.1007    4.2395   23.2602 N   0  0  0  0  0  0  0  0  0  0  0  0
    6.9754    3.0366   23.1485 C   0  0  0  0  0  0  0  0  0  0  0  0
    7.0399    2.2698   24.4775 C   0  0  0  0  0  0  0  0  0  0  0  0
    7.8199    1.0530   24.3518 N   0  0  0  0  0  0  0  0  0  0  0  0
    7.2105   -0.1978   23.9310 C   0  0  0  0  0  0  0  0  0  0  0  0
    7.9743   -0.8525   22.7417 C   0  0  2  0  0  0  0  0  0  0  0  0
    7.6538   -0.1237   21.4174 C   0  0  0  0  0  0  0  0  0  0  0  0
    8.2644    0.7839   20.8834 O   0  0  0  0  0  0  0  0  0  0  0  0
    6.5030   -0.6880   20.9123 N   0  0  0  0  0  0  0  0  0  0  0  0
    5.8512   -0.0944   19.8084 C   0  0  0  0  0  0  0  0  0  0  0  0
    6.3179   -0.3351   18.5411 C   0  0  0  0  0  0  0  0  0  0  0  0
    5.7823    0.1972   17.4159 N   0  0  0  0  0  0  0  0  0  0  0  0
    4.7628    1.0104   17.5755 C   0  0  0  0  0  0  0  0  0  0  0  0
    4.1998    1.3682   18.8342 C   0  0  0  0  0  0  0  0  0  0  0  0
    3.1204    2.2865   18.9425 C   0  0  0  0  0  0  0  0  0  0  0  0
    2.6188    2.6240   20.1709 C   0  0  0  0  0  0  0  0  0  0  0  0
    3.1568    2.0566   21.3476 C   0  0  0  0  0  0  0  0  0  0  0  0
    4.2044    1.1671   21.2695 C   0  0  0  0  0  0  0  0  0  0  0  0
    4.7520    0.7959   20.0051 C   0  0  0  0  0  0  0  0  0  0  0  0
    6.1261   -1.9350   21.5586 C   0  0  0  0  0  0  0  0  0  0  0  0
    7.3848   -2.2536   22.3780 C   0  0  2  0  0  0  0  0  0  0  0  0
    7.1749   -3.2512   23.5066 C   0  0  0  0  0  0  0  0  0  0  0  0
    9.4525   -0.8055   23.0392 C   0  0  0  0  0  0  0  0  0  0  0  0
   10.3390   -1.5573   22.2604 C   0  0  0  0  0  0  0  0  0  0  0  0
   11.6989   -1.4668   22.4832 C   0  0  0  0  0  0  0  0  0  0  0  0
   12.7705   -2.3716   21.4573 Cl  0  0  0  0  0  0  0  0  0  0  0  0
   12.2268   -0.6782   23.5044 C   0  0  0  0  0  0  0  0  0  0  0  0
   11.3577    0.0765   24.2655 C   0  0  0  0  0  0  0  0  0  0  0  0
    9.9909    0.0601   24.0026 C   0  0  0  0  0  0  0  0  0  0  0  0
    9.1452    1.0892   24.6928 C   0  0  0  0  0  0  0  0  0  0  0  0
    9.6227    1.9228   25.4463 O   0  0  0  0  0  0  0  0  0  0  0  0
    5.6985    4.7992   21.9221 C   0  0  0  0  0  0  0  0  0  0  0  0
    4.7801    5.9923   22.1444 C   0  0  2  0  0  0  0  0  0  0  0  0
    4.2568    6.6321   20.8853 C   0  0  0  0  0  0  0  0  0  0  0  0
    5.5075    6.9990   22.8394 O   0  0  0  0  0  0  0  0  0  0  0  0
    3.9766    5.5893   24.7147 H   0  0  0  0  0  0  0  0  0  0  0  0
    3.9675    7.3555   24.8662 H   0  0  0  0  0  0  0  0  0  0  0  0
    4.8177    6.3586   26.0683 H   0  0  0  0  0  0  0  0  0  0  0  0
    6.4630    7.3993   24.5587 H   0  0  0  0  0  0  0  0  0  0  0  0
    7.6832    5.6071   23.6252 H   0  0  0  0  0  0  0  0  0  0  0  0
    6.9176    4.9640   25.0998 H   0  0  0  0  0  0  0  0  0  0  0  0
    5.2343    3.9036   23.7304 H   0  0  0  0  0  0  0  0  0  0  0  0
    6.5731    2.3925   22.3565 H   0  0  0  0  0  0  0  0  0  0  0  0
    7.9769    3.3483   22.8232 H   0  0  0  0  0  0  0  0  0  0  0  0
    6.0193    2.0111   24.7897 H   0  0  0  0  0  0  0  0  0  0  0  0
    7.4969    2.8747   25.2688 H   0  0  0  0  0  0  0  0  0  0  0  0
    6.1656    0.0012   23.6687 H   0  0  0  0  0  0  0  0  0  0  0  0
    7.2173   -0.9021   24.7770 H   0  0  0  0  0  0  0  0  0  0  0  0
    7.1779   -0.9889   18.4083 H   0  0  0  0  0  0  0  0  0  0  0  0
    4.3248    1.4416   16.6757 H   0  0  0  0  0  0  0  0  0  0  0  0
    2.7080    2.7096   18.0303 H   0  0  0  0  0  0  0  0  0  0  0  0
    1.7994    3.3333   20.2485 H   0  0  0  0  0  0  0  0  0  0  0  0
    2.7448    2.3287   22.3173 H   0  0  0  0  0  0  0  0  0  0  0  0
    4.6125    0.7549   22.1881 H   0  0  0  0  0  0  0  0  0  0  0  0
    5.2351   -1.8315   22.2004 H   0  0  0  0  0  0  0  0  0  0  0  0
    5.9109   -2.7159   20.8203 H   0  0  0  0  0  0  0  0  0  0  0  0
    8.0809   -2.7036   21.6617 H   0  0  0  0  0  0  0  0  0  0  0  0
    8.0943   -3.3828   24.0879 H   0  0  0  0  0  0  0  0  0  0  0  0
    6.8882   -4.2259   23.0930 H   0  0  0  0  0  0  0  0  0  0  0  0
    6.3804   -2.9248   24.1884 H   0  0  0  0  0  0  0  0  0  0  0  0
    9.9853   -2.1914   21.4544 H   0  0  0  0  0  0  0  0  0  0  0  0
   13.2987   -0.6236   23.6579 H   0  0  0  0  0  0  0  0  0  0  0  0
   11.7161    0.7279   25.0544 H   0  0  0  0  0  0  0  0  0  0  0  0
    6.5965    5.1318   21.3868 H   0  0  0  0  0  0  0  0  0  0  0  0
    5.2135    4.0100   21.3370 H   0  0  0  0  0  0  0  0  0  0  0  0
    3.9331    5.6503   22.7532 H   0  0  0  0  0  0  0  0  0  0  0  0
    3.5933    5.9528   20.3360 H   0  0  0  0  0  0  0  0  0  0  0  0
    5.1098    6.9094   20.2589 H   0  0  0  0  0  0  0  0  0  0  0  0
    3.6989    7.5389   21.1385 H   0  0  0  0  0  0  0  0  0  0  0  0
  1  2  1  0
  2  3  1  0
  3  4  1  0
  4  5  1  0
  5  6  1  0
  6  7  1  0
  7  8  1  0
  9  8  1  1
  9 10  1  0
 10 11  2  0
 10 12  1  0
 12 13  1  0
 13 14  2  0
 14 15  1  0
 15 16  2  0
 16 17  1  0
 17 18  2  0
 18 19  1  0
 19 20  2  0
 20 21  1  0
 21 22  2  0
 12 23  1  0
 23 24  1  0
 24 25  1  0
  9 26  1  0
 26 27  2  0
 27 28  1  0
 28 29  1  0
 28 30  2  0
 30 31  1  0
 31 32  2  0
 32 33  1  0
 33 34  2  0
  4 35  1  0
 35 36  1  0
 36 37  1  0
 36 38  1  0
 38  2  1  0
 33  7  1  0
 24  9  1  0
 32 26  1  0
 22 13  1  0
 22 17  1  0
  1 39  1  0
  1 40  1  0
  1 41  1  0
  2 42  1  1
  3 43  1  0
  3 44  1  0
  4 45  1  0
  5 46  1  0
  5 47  1  0
  6 48  1  0
  6 49  1  0
  8 50  1  0
  8 51  1  0
 14 52  1  0
 16 53  1  0
 18 54  1  0
 19 55  1  0
 20 56  1  0
 21 57  1  0
 23 58  1  0
 23 59  1  0
 24 60  1  6
 25 61  1  0
 25 62  1  0
 25 63  1  0
 27 64  1  0
 30 65  1  0
 31 66  1  0
 35 67  1  0
 35 68  1  0
 36 69  1  1
 37 70  1  0
 37 71  1  0
 37 72  1  0
M  CHG  1   4   1
M  END
>  <RMSD>  (50) 
0.18611125191171743

$$$$

     RDKit          3D

 41 43  0  0  0  0  0  0  0  0999 V2000
   11.3052   -3.7525   22.0614 C   0  0  0  0  0  0  0  0  0  0  0  0
   10.1969   -2.7559   22.3420 C   0  0  1  0  0  0  0  0  0  0  0  0
    8.8110   -3.4157   22.2937 C   0  0  0  0  0  0  0  0  0  0  0  0
    7.7137   -2.6058   23.0164 C   0  0  0  0  0  0  0  0  0  0  0  0
    7.8202   -1.1521   22.8607 N   0  0  0  0  0  0  0  0  0  0  0  0
    7.5856   -0.5496   21.6325 C   0  0  0  0  0  0  0  0  0  0  0  0
    8.3188    0.3012   21.1634 O   0  0  0  0  0  0  0  0  0  0  0  0
    6.2954   -1.0336   20.9630 C   0  0  0  0  0  0  0  0  0  0  0  0
    5.7640   -0.1988   19.8322 C   0  0  0  0  0  0  0  0  0  0  0  0
    6.1583   -0.4954   18.5597 C   0  0  0  0  0  0  0  0  0  0  0  0
    5.7194    0.1176   17.4290 N   0  0  0  0  0  0  0  0  0  0  0  0
    4.8182    1.0588   17.5825 C   0  0  0  0  0  0  0  0  0  0  0  0
    4.2653    1.4459   18.8359 C   0  0  0  0  0  0  0  0  0  0  0  0
    3.1857    2.3649   18.9561 C   0  0  0  0  0  0  0  0  0  0  0  0
    2.5806    2.5748   20.1658 C   0  0  0  0  0  0  0  0  0  0  0  0
    3.1199    1.9906   21.3305 C   0  0  0  0  0  0  0  0  0  0  0  0
    4.2195    1.1773   21.2589 C   0  0  0  0  0  0  0  0  0  0  0  0
    4.7735    0.8152   20.0047 C   0  0  0  0  0  0  0  0  0  0  0  0
    8.6930   -0.4703   23.8088 C   0  0  0  0  0  0  0  0  0  0  0  0
   10.1847   -0.7759   23.6707 C   0  0  0  0  0  0  0  0  0  0  0  0
   10.4624   -2.1581   23.6074 O   0  0  0  0  0  0  0  0  0  0  0  0
   11.1551   -4.2173   21.0810 H   0  0  0  0  0  0  0  0  0  0  0  0
   11.3212   -4.5338   22.8279 H   0  0  0  0  0  0  0  0  0  0  0  0
   12.2752   -3.2458   22.0616 H   0  0  0  0  0  0  0  0  0  0  0  0
   10.2335   -1.9695   21.5765 H   0  0  0  0  0  0  0  0  0  0  0  0
    8.8623   -4.4189   22.7397 H   0  0  0  0  0  0  0  0  0  0  0  0
    8.5424   -3.5654   21.2381 H   0  0  0  0  0  0  0  0  0  0  0  0
    6.7258   -2.9372   22.6780 H   0  0  0  0  0  0  0  0  0  0  0  0
    7.7691   -2.8137   24.0878 H   0  0  0  0  0  0  0  0  0  0  0  0
    5.5402   -1.1481   21.7476 H   0  0  0  0  0  0  0  0  0  0  0  0
    6.4925   -2.0455   20.5807 H   0  0  0  0  0  0  0  0  0  0  0  0
    6.8882   -1.2930   18.4146 H   0  0  0  0  0  0  0  0  0  0  0  0
    4.4611    1.5273   16.6655 H   0  0  0  0  0  0  0  0  0  0  0  0
    2.8607    2.9250   18.0812 H   0  0  0  0  0  0  0  0  0  0  0  0
    1.6536    3.1353   20.2520 H   0  0  0  0  0  0  0  0  0  0  0  0
    2.6418    2.1709   22.2836 H   0  0  0  0  0  0  0  0  0  0  0  0
    4.6740    0.8129   22.1761 H   0  0  0  0  0  0  0  0  0  0  0  0
    8.5272    0.6073   23.7139 H   0  0  0  0  0  0  0  0  0  0  0  0
    8.3623   -0.7722   24.8112 H   0  0  0  0  0  0  0  0  0  0  0  0
   10.7115   -0.3884   24.5532 H   0  0  0  0  0  0  0  0  0  0  0  0
   10.5920   -0.2615   22.7869 H   0  0  0  0  0  0  0  0  0  0  0  0
  1  2  1  0
  2  3  1  0
  3  4  1  0
  4  5  1  0
  5  6  1  0
  6  7  2  0
  6  8  1  0
  8  9  1  0
  9 10  2  0
 10 11  1  0
 11 12  2  0
 12 13  1  0
 13 14  2  0
 14 15  1  0
 15 16  2  0
 16 17  1  0
 17 18  2  0
  5 19  1  0
 19 20  1  0
 20 21  1  0
 21  2  1  0
 18  9  1  0
 18 13  1  0
  1 22  1  0
  1 23  1  0
  1 24  1  0
  2 25  1  6
  3 26  1  0
  3 27  1  0
  4 28  1  0
  4 29  1  0
  8 30  1  0
  8 31  1  0
 10 32  1  0
 12 33  1  0
 14 34  1  0
 15 35  1  0
 16 36  1  0
 17 37  1  0
 19 38  1  0
 19 39  1  0
 20 40  1  0
 20 41  1  0
M  END
>  <RMSD>  (51) 
0.11364089961156668

$$$$

     RDKit          3D

 70 75  0  0  0  0  0  0  0  0999 V2000
    4.7075    8.6142   25.0283 C   0  0  0  0  0  0  0  0  0  0  0  0
    5.9818    8.8947   24.4990 O   0  0  0  0  0  0  0  0  0  0  0  0
    6.5766    7.8789   23.8151 C   0  0  0  0  0  0  0  0  0  0  0  0
    7.8810    8.1422   23.3911 C   0  0  0  0  0  0  0  0  0  0  0  0
    8.6206    7.1462   22.7748 C   0  0  0  0  0  0  0  0  0  0  0  0
    8.0554    5.8908   22.5577 C   0  0  0  0  0  0  0  0  0  0  0  0
    6.7175    5.6629   22.8618 C   0  0  0  0  0  0  0  0  0  0  0  0
    6.1210    4.3266   22.4448 C   0  0  0  0  0  0  0  0  0  0  0  0
    6.6884    3.2039   23.1759 N   0  0  0  0  0  0  0  0  0  0  0  0
    6.2123    2.9492   24.4161 C   0  0  0  0  0  0  0  0  0  0  0  0
    5.3202    3.6127   24.9302 O   0  0  0  0  0  0  0  0  0  0  0  0
    6.8278    1.7965   25.2145 C   0  0  0  0  0  0  0  0  0  0  0  0
    7.7065    0.9101   24.4849 N   0  0  0  0  0  0  0  0  0  0  0  0
    7.2125   -0.3966   24.0861 C   0  0  0  0  0  0  0  0  0  0  0  0
    7.9247   -0.9169   22.8093 C   0  0  2  0  0  0  0  0  0  0  0  0
    7.5220   -0.0274   21.6052 C   0  0  0  0  0  0  0  0  0  0  0  0
    7.9654    1.0675   21.3105 O   0  0  0  0  0  0  0  0  0  0  0  0
    6.5185   -0.6732   20.9201 N   0  0  0  0  0  0  0  0  0  0  0  0
    5.8693   -0.0695   19.8153 C   0  0  0  0  0  0  0  0  0  0  0  0
    6.3073   -0.3413   18.5452 C   0  0  0  0  0  0  0  0  0  0  0  0
    5.7702    0.1858   17.4157 N   0  0  0  0  0  0  0  0  0  0  0  0
    4.7630    1.0146   17.5725 C   0  0  0  0  0  0  0  0  0  0  0  0
    4.2107    1.3839   18.8333 C   0  0  0  0  0  0  0  0  0  0  0  0
    3.1261    2.2944   18.9417 C   0  0  0  0  0  0  0  0  0  0  0  0
    2.6128    2.6147   20.1682 C   0  0  0  0  0  0  0  0  0  0  0  0
    3.1526    2.0460   21.3440 C   0  0  0  0  0  0  0  0  0  0  0  0
    4.2060    1.1683   21.2677 C   0  0  0  0  0  0  0  0  0  0  0  0
    4.7681    0.8211   20.0040 C   0  0  0  0  0  0  0  0  0  0  0  0
    6.1194   -1.9350   21.5151 C   0  0  0  0  0  0  0  0  0  0  0  0
    7.3485   -2.2912   22.3629 C   0  0  2  0  0  0  0  0  0  0  0  0
    7.0757   -3.3078   23.4652 C   0  0  0  0  0  0  0  0  0  0  0  0
    9.4182   -0.8586   23.0619 C   0  0  0  0  0  0  0  0  0  0  0  0
   10.3218   -1.7886   22.5298 C   0  0  0  0  0  0  0  0  0  0  0  0
   11.6814   -1.6025   22.7033 C   0  0  0  0  0  0  0  0  0  0  0  0
   12.7897   -2.7559   22.0224 Cl  0  0  0  0  0  0  0  0  0  0  0  0
   12.1956   -0.5100   23.3984 C   0  0  0  0  0  0  0  0  0  0  0  0
   11.3127    0.3979   23.9413 C   0  0  0  0  0  0  0  0  0  0  0  0
    9.9385    0.2183   23.7948 C   0  0  0  0  0  0  0  0  0  0  0  0
    9.0429    1.2104   24.4693 C   0  0  0  0  0  0  0  0  0  0  0  0
    9.4836    2.2335   24.9767 O   0  0  0  0  0  0  0  0  0  0  0  0
    5.9728    6.6425   23.5407 C   0  0  0  0  0  0  0  0  0  0  0  0
    4.7548    7.7432   25.6987 H   0  0  0  0  0  0  0  0  0  0  0  0
    3.9947    8.4343   24.2114 H   0  0  0  0  0  0  0  0  0  0  0  0
    4.3926    9.4890   25.6017 H   0  0  0  0  0  0  0  0  0  0  0  0
    8.2807    9.1363   23.5892 H   0  0  0  0  0  0  0  0  0  0  0  0
    9.6391    7.3543   22.4543 H   0  0  0  0  0  0  0  0  0  0  0  0
    8.6590    5.0644   22.1769 H   0  0  0  0  0  0  0  0  0  0  0  0
    5.0419    4.3294   22.6134 H   0  0  0  0  0  0  0  0  0  0  0  0
    6.2894    4.1296   21.3761 H   0  0  0  0  0  0  0  0  0  0  0  0
    7.3391    2.5862   22.6999 H   0  0  0  0  0  0  0  0  0  0  0  0
    5.9884    1.2330   25.6339 H   0  0  0  0  0  0  0  0  0  0  0  0
    7.3764    2.2303   26.0600 H   0  0  0  0  0  0  0  0  0  0  0  0
    7.3746   -1.1197   24.8969 H   0  0  0  0  0  0  0  0  0  0  0  0
    6.1331   -0.3161   23.9109 H   0  0  0  0  0  0  0  0  0  0  0  0
    7.1474   -1.0214   18.4149 H   0  0  0  0  0  0  0  0  0  0  0  0
    4.3232    1.4412   16.6716 H   0  0  0  0  0  0  0  0  0  0  0  0
    2.7199    2.7306   18.0324 H   0  0  0  0  0  0  0  0  0  0  0  0
    1.7836    3.3107   20.2485 H   0  0  0  0  0  0  0  0  0  0  0  0
    2.7428    2.3185   22.3150 H   0  0  0  0  0  0  0  0  0  0  0  0
    4.6155    0.7432   22.1811 H   0  0  0  0  0  0  0  0  0  0  0  0
    5.9130   -2.6759   20.7369 H   0  0  0  0  0  0  0  0  0  0  0  0
    5.2124   -1.8353   22.1378 H   0  0  0  0  0  0  0  0  0  0  0  0
    8.0663   -2.7153   21.6537 H   0  0  0  0  0  0  0  0  0  0  0  0
    6.2606   -2.9711   24.1181 H   0  0  0  0  0  0  0  0  0  0  0  0
    7.9648   -3.4564   24.0882 H   0  0  0  0  0  0  0  0  0  0  0  0
    6.7883   -4.2745   23.0373 H   0  0  0  0  0  0  0  0  0  0  0  0
    9.9990   -2.6644   21.9774 H   0  0  0  0  0  0  0  0  0  0  0  0
   13.2661   -0.3831   23.5100 H   0  0  0  0  0  0  0  0  0  0  0  0
   11.6613    1.2636   24.4925 H   0  0  0  0  0  0  0  0  0  0  0  0
    4.9543    6.4176   23.8671 H   0  0  0  0  0  0  0  0  0  0  0  0
  1  2  1  0
  2  3  1  0
  3  4  2  0
  4  5  1  0
  5  6  2  0
  6  7  1  0
  7  8  1  0
  8  9  1  0
  9 10  1  0
 10 11  2  0
 10 12  1  0
 12 13  1  0
 13 14  1  0
 15 14  1  1
 15 16  1  0
 16 17  2  0
 16 18  1  0
 18 19  1  0
 19 20  2  0
 20 21  1  0
 21 22  2  0
 22 23  1  0
 23 24  2  0
 24 25  1  0
 25 26  2  0
 26 27  1  0
 27 28  2  0
 18 29  1  0
 29 30  1  0
 30 31  1  0
 15 32  1  0
 32 33  2  0
 33 34  1  0
 34 35  1  0
 34 36  2  0
 36 37  1  0
 37 38  2  0
 38 39  1  0
 39 40  2  0
  7 41  2  0
 41  3  1  0
 39 13  1  0
 30 15  1  0
 38 32  1  0
 28 19  1  0
 28 23  1  0
  1 42  1  0
  1 43  1  0
  1 44  1  0
  4 45  1  0
  5 46  1  0
  6 47  1  0
  8 48  1  0
  8 49  1  0
  9 50  1  0
 12 51  1  0
 12 52  1  0
 14 53  1  0
 14 54  1  0
 20 55  1  0
 22 56  1  0
 24 57  1  0
 25 58  1  0
 26 59  1  0
 27 60  1  0
 29 61  1  0
 29 62  1  0
 30 63  1  6
 31 64  1  0
 31 65  1  0
 31 66  1  0
 33 67  1  0
 36 68  1  0
 37 69  1  0
 41 70  1  0
M  END
>  <RMSD>  (52) 
0.1768617605177657

$$$$

     RDKit          3D

 61 65  0  0  0  0  0  0  0  0999 V2000
    7.0590   -3.2997   23.4835 C   0  0  0  0  0  0  0  0  0  0  0  0
    7.3388   -2.2857   22.3785 C   0  0  1  0  0  0  0  0  0  0  0  0
    6.1220   -1.9434   21.5055 C   0  0  0  0  0  0  0  0  0  0  0  0
    6.5284   -0.6845   20.9107 N   0  0  0  0  0  0  0  0  0  0  0  0
    5.8728   -0.0671   19.8167 C   0  0  0  0  0  0  0  0  0  0  0  0
    6.3035   -0.3470   18.5459 C   0  0  0  0  0  0  0  0  0  0  0  0
    5.7698    0.1834   17.4188 N   0  0  0  0  0  0  0  0  0  0  0  0
    4.7673    1.0187   17.5729 C   0  0  0  0  0  0  0  0  0  0  0  0
    4.2180    1.3891   18.8364 C   0  0  0  0  0  0  0  0  0  0  0  0
    3.1284    2.2948   18.9456 C   0  0  0  0  0  0  0  0  0  0  0  0
    2.6066    2.6148   20.1699 C   0  0  0  0  0  0  0  0  0  0  0  0
    3.1434    2.0432   21.3435 C   0  0  0  0  0  0  0  0  0  0  0  0
    4.2103    1.1779   21.2688 C   0  0  0  0  0  0  0  0  0  0  0  0
    4.7790    0.8307   20.0076 C   0  0  0  0  0  0  0  0  0  0  0  0
    7.4657   -0.0138   21.6495 C   0  0  0  0  0  0  0  0  0  0  0  0
    7.8015    1.1425   21.4446 O   0  0  0  0  0  0  0  0  0  0  0  0
    7.9011   -0.9099   22.8298 C   0  0  1  0  0  0  0  0  0  0  0  0
    7.1842   -0.3907   24.0997 C   0  0  0  0  0  0  0  0  0  0  0  0
    7.6757    0.9140   24.4989 N   0  0  0  0  0  0  0  0  0  0  0  0
    6.7846    1.8228   25.1990 C   0  0  0  0  0  0  0  0  0  0  0  0
    6.2071    3.0123   24.3894 C   0  0  0  0  0  0  0  0  0  0  0  0
    6.8202    3.2995   23.0466 N   0  0  0  0  0  0  0  0  0  0  0  0
    5.9430    4.2322   22.2795 C   0  0  0  0  0  0  0  0  0  0  0  0
    8.2092    3.8627   23.1489 C   0  0  0  0  0  0  0  0  0  0  0  0
    9.0191    1.1394   24.6064 C   0  0  0  0  0  0  0  0  0  0  0  0
    9.4808    2.0707   25.2545 O   0  0  0  0  0  0  0  0  0  0  0  0
    9.9123    0.1994   23.8523 C   0  0  0  0  0  0  0  0  0  0  0  0
   11.2873    0.3965   23.9781 C   0  0  0  0  0  0  0  0  0  0  0  0
   12.1806   -0.4934   23.4166 C   0  0  0  0  0  0  0  0  0  0  0  0
   11.6712   -1.5874   22.7196 C   0  0  0  0  0  0  0  0  0  0  0  0
   12.7851   -2.7396   22.0313 Cl  0  0  0  0  0  0  0  0  0  0  0  0
   10.3098   -1.7774   22.5500 C   0  0  0  0  0  0  0  0  0  0  0  0
    9.3958   -0.8555   23.0877 C   0  0  0  0  0  0  0  0  0  0  0  0
    6.2375   -2.9715   24.1306 H   0  0  0  0  0  0  0  0  0  0  0  0
    7.9362   -3.4526   24.1226 H   0  0  0  0  0  0  0  0  0  0  0  0
    6.7723   -4.2732   23.0731 H   0  0  0  0  0  0  0  0  0  0  0  0
    8.0875   -2.6963   21.6967 H   0  0  0  0  0  0  0  0  0  0  0  0
    5.2100   -1.8307   22.1173 H   0  0  0  0  0  0  0  0  0  0  0  0
    5.9113   -2.6871   20.7316 H   0  0  0  0  0  0  0  0  0  0  0  0
    7.1423   -1.0271   18.4061 H   0  0  0  0  0  0  0  0  0  0  0  0
    4.3209    1.4398   16.6708 H   0  0  0  0  0  0  0  0  0  0  0  0
    2.7243    2.7218   18.0339 H   0  0  0  0  0  0  0  0  0  0  0  0
    1.7795    3.3142   20.2498 H   0  0  0  0  0  0  0  0  0  0  0  0
    2.7285    2.3140   22.3118 H   0  0  0  0  0  0  0  0  0  0  0  0
    4.6137    0.7508   22.1820 H   0  0  0  0  0  0  0  0  0  0  0  0
    6.1113   -0.3004   23.9072 H   0  0  0  0  0  0  0  0  0  0  0  0
    7.3374   -1.1172   24.9116 H   0  0  0  0  0  0  0  0  0  0  0  0
    7.3380    2.1877   26.0681 H   0  0  0  0  0  0  0  0  0  0  0  0
    5.9504    1.2212   25.5824 H   0  0  0  0  0  0  0  0  0  0  0  0
    5.1338    2.8628   24.2380 H   0  0  0  0  0  0  0  0  0  0  0  0
    6.2965    3.9112   25.0120 H   0  0  0  0  0  0  0  0  0  0  0  0
    6.9017    2.4053   22.5389 H   0  0  0  0  0  0  0  0  0  0  0  0
    4.9185    3.8582   22.2484 H   0  0  0  0  0  0  0  0  0  0  0  0
    6.3068    4.3403   21.2523 H   0  0  0  0  0  0  0  0  0  0  0  0
    5.9274    5.2244   22.7557 H   0  0  0  0  0  0  0  0  0  0  0  0
    8.9214    3.1073   22.7913 H   0  0  0  0  0  0  0  0  0  0  0  0
    8.2859    4.7424   22.5009 H   0  0  0  0  0  0  0  0  0  0  0  0
    8.4348    4.1503   24.1834 H   0  0  0  0  0  0  0  0  0  0  0  0
   11.6289    1.2605   24.5361 H   0  0  0  0  0  0  0  0  0  0  0  0
   13.2547   -0.3661   23.5234 H   0  0  0  0  0  0  0  0  0  0  0  0
    9.9860   -2.6588   22.0085 H   0  0  0  0  0  0  0  0  0  0  0  0
  1  2  1  0
  2  3  1  0
  3  4  1  0
  4  5  1  0
  5  6  2  0
  6  7  1  0
  7  8  2  0
  8  9  1  0
  9 10  2  0
 10 11  1  0
 11 12  2  0
 12 13  1  0
 13 14  2  0
  4 15  1  0
 15 16  2  0
 15 17  1  0
 17 18  1  1
 18 19  1  0
 19 20  1  0
 20 21  1  0
 21 22  1  0
 22 23  1  0
 22 24  1  0
 19 25  1  0
 25 26  2  0
 25 27  1  0
 27 28  2  0
 28 29  1  0
 29 30  2  0
 30 31  1  0
 30 32  1  0
 32 33  2  0
 17  2  1  0
 33 27  1  0
 14  5  1  0
 33 17  1  0
 14  9  1  0
  1 34  1  0
  1 35  1  0
  1 36  1  0
  2 37  1  6
  3 38  1  0
  3 39  1  0
  6 40  1  0
  8 41  1  0
 10 42  1  0
 11 43  1  0
 12 44  1  0
 13 45  1  0
 18 46  1  0
 18 47  1  0
 20 48  1  0
 20 49  1  0
 21 50  1  0
 21 51  1  0
 22 52  1  0
 23 53  1  0
 23 54  1  0
 23 55  1  0
 24 56  1  0
 24 57  1  0
 24 58  1  0
 28 59  1  0
 29 60  1  0
 32 61  1  0
M  CHG  1  22   1
M  END
>  <RMSD>  (53) 
0.1773694551525371

$$$$

     RDKit          3D

 47 50  0  0  0  0  0  0  0  0999 V2000
    8.2231    0.3292   21.2575 O   0  0  0  0  0  0  0  0  0  0  0  0
    7.5102   -0.5609   21.6791 C   0  0  0  0  0  0  0  0  0  0  0  0
    6.2509   -1.0701   20.9659 C   0  0  0  0  0  0  0  0  0  0  0  0
    5.7419   -0.2352   19.8271 C   0  0  0  0  0  0  0  0  0  0  0  0
    6.2166   -0.4457   18.5596 C   0  0  0  0  0  0  0  0  0  0  0  0
    5.7775    0.1791   17.4350 N   0  0  0  0  0  0  0  0  0  0  0  0
    4.8029    1.0465   17.5878 C   0  0  0  0  0  0  0  0  0  0  0  0
    4.2039    1.3665   18.8370 C   0  0  0  0  0  0  0  0  0  0  0  0
    3.1339    2.2943   18.9449 C   0  0  0  0  0  0  0  0  0  0  0  0
    2.6149    2.6182   20.1708 C   0  0  0  0  0  0  0  0  0  0  0  0
    3.1369    2.0256   21.3429 C   0  0  0  0  0  0  0  0  0  0  0  0
    4.1627    1.1142   21.2591 C   0  0  0  0  0  0  0  0  0  0  0  0
    4.7165    0.7455   20.0020 C   0  0  0  0  0  0  0  0  0  0  0  0
    7.7693   -1.2036   22.8832 N   0  0  0  0  0  0  0  0  0  0  0  0
    7.1678   -2.4394   23.1929 C   0  0  0  0  0  0  0  0  0  0  0  0
    6.1135   -2.5763   24.0102 C   0  0  0  0  0  0  0  0  0  0  0  0
    5.5505   -1.5157   24.8452 C   0  0  0  0  0  0  0  0  0  0  0  0
    6.2448   -0.7194   25.6727 C   0  0  0  0  0  0  0  0  0  0  0  0
    7.6550   -0.9124   26.0446 C   0  0  0  0  0  0  0  0  0  0  0  0
    8.6916   -1.0480   25.2108 C   0  0  0  0  0  0  0  0  0  0  0  0
    8.7739   -0.5692   23.7692 C   0  0  1  0  0  0  0  0  0  0  0  0
   10.2005   -0.7747   23.2759 C   0  0  0  0  0  0  0  0  0  0  0  0
   10.6393   -2.0610   22.9791 C   0  0  0  0  0  0  0  0  0  0  0  0
   11.9962   -2.3315   22.8969 C   0  0  0  0  0  0  0  0  0  0  0  0
   12.9267   -1.3165   23.0895 C   0  0  0  0  0  0  0  0  0  0  0  0
   12.4889   -0.0126   23.3066 C   0  0  0  0  0  0  0  0  0  0  0  0
   11.1298    0.2643   23.3554 C   0  0  0  0  0  0  0  0  0  0  0  0
    5.4871   -1.1985   21.7402 H   0  0  0  0  0  0  0  0  0  0  0  0
    6.4932   -2.0768   20.6021 H   0  0  0  0  0  0  0  0  0  0  0  0
    7.0006   -1.1857   18.3940 H   0  0  0  0  0  0  0  0  0  0  0  0
    4.4525    1.5619   16.6928 H   0  0  0  0  0  0  0  0  0  0  0  0
    2.7387    2.7405   18.0336 H   0  0  0  0  0  0  0  0  0  0  0  0
    1.8074    3.3426   20.2591 H   0  0  0  0  0  0  0  0  0  0  0  0
    2.7212    2.2933   22.3147 H   0  0  0  0  0  0  0  0  0  0  0  0
    4.5556    0.6677   22.1676 H   0  0  0  0  0  0  0  0  0  0  0  0
    7.5449   -3.2972   22.6298 H   0  0  0  0  0  0  0  0  0  0  0  0
    5.6039   -3.5368   24.0277 H   0  0  0  0  0  0  0  0  0  0  0  0
    4.4633   -1.4161   24.8208 H   0  0  0  0  0  0  0  0  0  0  0  0
    5.7217    0.0603   26.2234 H   0  0  0  0  0  0  0  0  0  0  0  0
    7.8520   -0.9366   27.1193 H   0  0  0  0  0  0  0  0  0  0  0  0
    9.6334   -1.4266   25.6074 H   0  0  0  0  0  0  0  0  0  0  0  0
    8.5401    0.5016   23.7508 H   0  0  0  0  0  0  0  0  0  0  0  0
    9.9022   -2.8563   22.8760 H   0  0  0  0  0  0  0  0  0  0  0  0
   12.3359   -3.3481   22.7460 H   0  0  0  0  0  0  0  0  0  0  0  0
   13.9891   -1.5341   23.0284 H   0  0  0  0  0  0  0  0  0  0  0  0
   13.1972    0.8034   23.4304 H   0  0  0  0  0  0  0  0  0  0  0  0
   10.8078    1.2953   23.4882 H   0  0  0  0  0  0  0  0  0  0  0  0
  1  2  2  0
  2  3  1  0
  3  4  1  0
  4  5  2  0
  5  6  1  0
  6  7  2  0
  7  8  1  0
  8  9  2  0
  9 10  1  0
 10 11  2  0
 11 12  1  0
 12 13  2  0
  2 14  1  0
 14 15  1  0
 15 16  2  3
 16 17  1  0
 17 18  2  3
 18 19  1  0
 19 20  2  3
 20 21  1  0
 21 22  1  0
 22 23  2  0
 23 24  1  0
 24 25  2  0
 25 26  1  0
 26 27  2  0
 13  4  1  0
 21 14  1  0
 27 22  1  0
 13  8  1  0
  3 28  1  0
  3 29  1  0
  5 30  1  0
  7 31  1  0
  9 32  1  0
 10 33  1  0
 11 34  1  0
 12 35  1  0
 15 36  1  0
 16 37  1  0
 17 38  1  0
 18 39  1  0
 19 40  1  0
 20 41  1  0
 21 42  1  1
 23 43  1  0
 24 44  1  0
 25 45  1  0
 26 46  1  0
 27 47  1  0
M  END
>  <RMSD>  (54) 
0.05130696011848619

$$$$

     RDKit          3D

 57 62  0  0  0  0  0  0  0  0999 V2000
    5.4481    4.7791   21.4633 C   0  0  0  0  0  0  0  0  0  0  0  0
    5.8349    4.1988   22.7784 C   0  0  0  0  0  0  0  0  0  0  0  0
    6.1515    2.9682   23.0693 N   0  0  0  0  0  0  0  0  0  0  0  0
    6.4137    3.0489   24.4112 C   0  0  0  0  0  0  0  0  0  0  0  0
    6.7753    1.8337   25.2024 C   0  0  0  0  0  0  0  0  0  0  0  0
    7.6666    0.9360   24.4924 N   0  0  0  0  0  0  0  0  0  0  0  0
    7.2034   -0.3879   24.1175 C   0  0  0  0  0  0  0  0  0  0  0  0
    7.9215   -0.9132   22.8444 C   0  0  2  0  0  0  0  0  0  0  0  0
    7.5463   -0.0311   21.6211 C   0  0  0  0  0  0  0  0  0  0  0  0
    8.0345    1.0222   21.2835 O   0  0  0  0  0  0  0  0  0  0  0  0
    6.5269   -0.6656   20.9388 N   0  0  0  0  0  0  0  0  0  0  0  0
    5.8812   -0.0594   19.8290 C   0  0  0  0  0  0  0  0  0  0  0  0
    6.3074   -0.3449   18.5573 C   0  0  0  0  0  0  0  0  0  0  0  0
    5.7678    0.1760   17.4270 N   0  0  0  0  0  0  0  0  0  0  0  0
    4.7649    1.0135   17.5677 C   0  0  0  0  0  0  0  0  0  0  0  0
    4.2009    1.3829   18.8246 C   0  0  0  0  0  0  0  0  0  0  0  0
    3.1144    2.2964   18.9407 C   0  0  0  0  0  0  0  0  0  0  0  0
    2.6052    2.6165   20.1705 C   0  0  0  0  0  0  0  0  0  0  0  0
    3.1506    2.0420   21.3406 C   0  0  0  0  0  0  0  0  0  0  0  0
    4.1982    1.1562   21.2561 C   0  0  0  0  0  0  0  0  0  0  0  0
    4.7620    0.8179   19.9971 C   0  0  0  0  0  0  0  0  0  0  0  0
    6.1346   -1.9310   21.5285 C   0  0  0  0  0  0  0  0  0  0  0  0
    7.3515   -2.2863   22.3958 C   0  0  2  0  0  0  0  0  0  0  0  0
    7.0623   -3.2919   23.5032 C   0  0  0  0  0  0  0  0  0  0  0  0
    9.4086   -0.8484   23.1168 C   0  0  0  0  0  0  0  0  0  0  0  0
   10.3129   -1.7745   22.5863 C   0  0  0  0  0  0  0  0  0  0  0  0
   11.6677   -1.5702   22.7566 C   0  0  0  0  0  0  0  0  0  0  0  0
   12.5188   -2.4586   22.2138 F   0  0  0  0  0  0  0  0  0  0  0  0
   12.1877   -0.4777   23.4450 C   0  0  0  0  0  0  0  0  0  0  0  0
   11.2921    0.4284   23.9826 C   0  0  0  0  0  0  0  0  0  0  0  0
    9.9131    0.2543   23.8282 C   0  0  0  0  0  0  0  0  0  0  0  0
    8.9895    1.2782   24.4324 C   0  0  0  0  0  0  0  0  0  0  0  0
    9.3903    2.3464   24.8702 O   0  0  0  0  0  0  0  0  0  0  0  0
    6.2462    4.2308   24.9306 N   0  0  0  0  0  0  0  0  0  0  0  0
    5.8750    5.0065   23.8384 O   0  0  0  0  0  0  0  0  0  0  0  0
    4.3755    4.9907   21.4264 H   0  0  0  0  0  0  0  0  0  0  0  0
    5.6551    4.0418   20.6941 H   0  0  0  0  0  0  0  0  0  0  0  0
    5.9800    5.7114   21.2474 H   0  0  0  0  0  0  0  0  0  0  0  0
    5.8607    1.2788   25.4282 H   0  0  0  0  0  0  0  0  0  0  0  0
    7.2236    2.1459   26.1476 H   0  0  0  0  0  0  0  0  0  0  0  0
    7.3669   -1.0898   24.9493 H   0  0  0  0  0  0  0  0  0  0  0  0
    6.1274   -0.3197   23.9253 H   0  0  0  0  0  0  0  0  0  0  0  0
    7.1422   -1.0259   18.4082 H   0  0  0  0  0  0  0  0  0  0  0  0
    4.3390    1.4418   16.6595 H   0  0  0  0  0  0  0  0  0  0  0  0
    2.7085    2.7431   18.0347 H   0  0  0  0  0  0  0  0  0  0  0  0
    1.7841    3.3265   20.2588 H   0  0  0  0  0  0  0  0  0  0  0  0
    2.7534    2.3114   22.3173 H   0  0  0  0  0  0  0  0  0  0  0  0
    4.6300    0.7391   22.1632 H   0  0  0  0  0  0  0  0  0  0  0  0
    5.9413   -2.6723   20.7504 H   0  0  0  0  0  0  0  0  0  0  0  0
    5.2255   -1.8556   22.1489 H   0  0  0  0  0  0  0  0  0  0  0  0
    8.0817   -2.7312   21.7152 H   0  0  0  0  0  0  0  0  0  0  0  0
    7.9315   -3.4372   24.1528 H   0  0  0  0  0  0  0  0  0  0  0  0
    6.7828   -4.2687   23.0970 H   0  0  0  0  0  0  0  0  0  0  0  0
    6.2413   -2.9520   24.1411 H   0  0  0  0  0  0  0  0  0  0  0  0
    9.9816   -2.6548   22.0442 H   0  0  0  0  0  0  0  0  0  0  0  0
   13.2652   -0.3567   23.5314 H   0  0  0  0  0  0  0  0  0  0  0  0
   11.6524    1.2899   24.5341 H   0  0  0  0  0  0  0  0  0  0  0  0
  1  2  1  0
  2  3  2  0
  3  4  1  0
  4  5  1  0
  5  6  1  0
  6  7  1  0
  8  7  1  1
  8  9  1  0
  9 10  2  0
  9 11  1  0
 11 12  1  0
 12 13  2  0
 13 14  1  0
 14 15  2  0
 15 16  1  0
 16 17  2  0
 17 18  1  0
 18 19  2  0
 19 20  1  0
 20 21  2  0
 11 22  1  0
 22 23  1  0
 23 24  1  0
  8 25  1  0
 25 26  2  0
 26 27  1  0
 27 28  1  0
 27 29  2  0
 29 30  1  0
 30 31  2  0
 31 32  1  0
 32 33  2  0
  4 34  2  0
 34 35  1  0
 35  2  1  0
 32  6  1  0
 23  8  1  0
 31 25  1  0
 21 12  1  0
 21 16  1  0
  1 36  1  0
  1 37  1  0
  1 38  1  0
  5 39  1  0
  5 40  1  0
  7 41  1  0
  7 42  1  0
 13 43  1  0
 15 44  1  0
 17 45  1  0
 18 46  1  0
 19 47  1  0
 20 48  1  0
 22 49  1  0
 22 50  1  0
 23 51  1  6
 24 52  1  0
 24 53  1  0
 24 54  1  0
 26 55  1  0
 29 56  1  0
 30 57  1  0
M  END
>  <RMSD>  (55) 
0.17405482092923602

$$$$

     RDKit          3D

 37 39  0  0  0  0  0  0  0  0999 V2000
    8.4747   -1.7639   20.2917 O   0  0  0  0  0  0  0  0  0  0  0  0
    7.5667   -1.5356   21.0797 C   0  0  0  0  0  0  0  0  0  0  0  0
    6.8655   -0.1873   21.0517 C   0  0  0  0  0  0  0  0  0  0  0  0
    5.9510    0.0344   19.8567 C   0  0  0  0  0  0  0  0  0  0  0  0
    6.3070   -0.3281   18.5844 C   0  0  0  0  0  0  0  0  0  0  0  0
    5.6461    0.0340   17.4454 N   0  0  0  0  0  0  0  0  0  0  0  0
    4.6311    0.8553   17.5713 C   0  0  0  0  0  0  0  0  0  0  0  0
    4.1723    1.3482   18.8271 C   0  0  0  0  0  0  0  0  0  0  0  0
    3.2339    2.4093   18.9544 C   0  0  0  0  0  0  0  0  0  0  0  0
    2.6977    2.6982   20.1811 C   0  0  0  0  0  0  0  0  0  0  0  0
    3.0698    1.9426   21.3187 C   0  0  0  0  0  0  0  0  0  0  0  0
    4.0802    1.0183   21.2385 C   0  0  0  0  0  0  0  0  0  0  0  0
    4.7355    0.7802   20.0005 C   0  0  0  0  0  0  0  0  0  0  0  0
    7.1747   -2.4920   22.0044 N   0  0  0  0  0  0  0  0  0  0  0  0
    6.5724   -2.1284   23.2919 C   0  0  0  0  0  0  0  0  0  0  0  0
    7.6420   -1.5435   24.2204 C   0  0  0  0  0  0  0  0  0  0  0  0
    8.8022   -2.5313   24.3905 C   0  0  0  0  0  0  0  0  0  0  0  0
    9.3197   -3.0471   23.0448 C   0  0  0  0  0  0  0  0  0  0  0  0
    8.1616   -3.5639   22.1869 C   0  0  0  0  0  0  0  0  0  0  0  0
    7.6801    0.5550   21.0309 H   0  0  0  0  0  0  0  0  0  0  0  0
    6.3398   -0.0137   21.9858 H   0  0  0  0  0  0  0  0  0  0  0  0
    7.1769   -0.9590   18.4158 H   0  0  0  0  0  0  0  0  0  0  0  0
    4.1361    1.1660   16.6440 H   0  0  0  0  0  0  0  0  0  0  0  0
    2.9811    3.0132   18.0835 H   0  0  0  0  0  0  0  0  0  0  0  0
    1.9875    3.5123   20.2964 H   0  0  0  0  0  0  0  0  0  0  0  0
    2.6005    2.1375   22.2799 H   0  0  0  0  0  0  0  0  0  0  0  0
    4.3772    0.4668   22.1305 H   0  0  0  0  0  0  0  0  0  0  0  0
    6.1537   -3.0502   23.7252 H   0  0  0  0  0  0  0  0  0  0  0  0
    5.7249   -1.4535   23.1388 H   0  0  0  0  0  0  0  0  0  0  0  0
    8.0088   -0.6033   23.7849 H   0  0  0  0  0  0  0  0  0  0  0  0
    7.2112   -1.3022   25.1990 H   0  0  0  0  0  0  0  0  0  0  0  0
    9.6128   -2.0558   24.9586 H   0  0  0  0  0  0  0  0  0  0  0  0
    8.4418   -3.3882   24.9796 H   0  0  0  0  0  0  0  0  0  0  0  0
    9.7994   -2.2291   22.4906 H   0  0  0  0  0  0  0  0  0  0  0  0
   10.0686   -3.8322   23.2080 H   0  0  0  0  0  0  0  0  0  0  0  0
    7.6738   -4.4169   22.6756 H   0  0  0  0  0  0  0  0  0  0  0  0
    8.5104   -3.8741   21.2023 H   0  0  0  0  0  0  0  0  0  0  0  0
  1  2  2  0
  2  3  1  0
  3  4  1  0
  4  5  2  0
  5  6  1  0
  6  7  2  0
  7  8  1  0
  8  9  2  0
  9 10  1  0
 10 11  2  0
 11 12  1  0
 12 13  2  0
  2 14  1  0
 14 15  1  0
 15 16  1  0
 16 17  1  0
 17 18  1  0
 18 19  1  0
 13  4  1  0
 19 14  1  0
 13  8  1  0
  3 20  1  0
  3 21  1  0
  5 22  1  0
  7 23  1  0
  9 24  1  0
 10 25  1  0
 11 26  1  0
 12 27  1  0
 15 28  1  0
 15 29  1  0
 16 30  1  0
 16 31  1  0
 17 32  1  0
 17 33  1  0
 18 34  1  0
 18 35  1  0
 19 36  1  0
 19 37  1  0
M  END
>  <RMSD>  (56) 
0.21078850221096196

$$$$

     RDKit          3D

 67 72  0  0  0  0  0  0  0  0999 V2000
    6.1240    4.2283   22.3242 C   0  0  0  0  0  0  0  0  0  0  0  0
    6.7361    3.1962   23.1412 N   0  0  0  0  0  0  0  0  0  0  0  0
    6.2421    2.9689   24.3816 C   0  0  0  0  0  0  0  0  0  0  0  0
    5.3691    3.6596   24.8913 O   0  0  0  0  0  0  0  0  0  0  0  0
    6.8321    1.8066   25.1920 C   0  0  0  0  0  0  0  0  0  0  0  0
    7.7109    0.9039   24.4817 N   0  0  0  0  0  0  0  0  0  0  0  0
    7.2181   -0.4060   24.0840 C   0  0  0  0  0  0  0  0  0  0  0  0
    7.9272   -0.9227   22.8011 C   0  0  2  0  0  0  0  0  0  0  0  0
    7.5061   -0.0432   21.5975 C   0  0  0  0  0  0  0  0  0  0  0  0
    7.9328    1.0571   21.2986 O   0  0  0  0  0  0  0  0  0  0  0  0
    6.5090   -0.6996   20.9128 N   0  0  0  0  0  0  0  0  0  0  0  0
    5.8597   -0.0857   19.8139 C   0  0  0  0  0  0  0  0  0  0  0  0
    6.3080   -0.3412   18.5432 C   0  0  0  0  0  0  0  0  0  0  0  0
    5.7768    0.1939   17.4150 N   0  0  0  0  0  0  0  0  0  0  0  0
    4.7670    1.0193   17.5737 C   0  0  0  0  0  0  0  0  0  0  0  0
    4.2143    1.3850   18.8351 C   0  0  0  0  0  0  0  0  0  0  0  0
    3.1267    2.2925   18.9414 C   0  0  0  0  0  0  0  0  0  0  0  0
    2.6118    2.6134   20.1667 C   0  0  0  0  0  0  0  0  0  0  0  0
    3.1538    2.0509   21.3446 C   0  0  0  0  0  0  0  0  0  0  0  0
    4.2114    1.1783   21.2692 C   0  0  0  0  0  0  0  0  0  0  0  0
    4.7714    0.8205   20.0070 C   0  0  0  0  0  0  0  0  0  0  0  0
    6.1259   -1.9635   21.5095 C   0  0  0  0  0  0  0  0  0  0  0  0
    7.3730   -2.2927   22.3381 C   0  0  2  0  0  0  0  0  0  0  0  0
    7.1293   -3.3383   23.4248 C   0  0  0  0  0  0  0  0  0  0  0  0
    6.8518   -4.6432   22.8727 N   0  0  0  0  0  0  0  0  0  0  0  0
    5.5771   -5.0091   22.5398 C   0  0  0  0  0  0  0  0  0  0  0  0
    4.4028   -4.4068   22.8957 C   0  0  0  0  0  0  0  0  0  0  0  0
    3.2544   -5.0400   22.5032 N   0  0  0  0  0  0  0  0  0  0  0  0
    3.5085   -6.1298   21.8519 C   0  0  0  0  0  0  0  0  0  0  0  0
    2.4018   -7.0231   21.4015 C   0  0  0  0  0  0  0  0  0  0  0  0
    5.2169   -6.4643   21.6386 S   0  0  0  0  0  0  0  0  0  0  0  0
    9.4213   -0.8545   23.0490 C   0  0  0  0  0  0  0  0  0  0  0  0
   10.3329   -1.7768   22.5157 C   0  0  0  0  0  0  0  0  0  0  0  0
   11.6911   -1.5792   22.6893 C   0  0  0  0  0  0  0  0  0  0  0  0
   12.8074   -2.7241   22.0075 Cl  0  0  0  0  0  0  0  0  0  0  0  0
   12.2013   -0.4841   23.3832 C   0  0  0  0  0  0  0  0  0  0  0  0
   11.3119    0.4163   23.9265 C   0  0  0  0  0  0  0  0  0  0  0  0
    9.9396    0.2235   23.7831 C   0  0  0  0  0  0  0  0  0  0  0  0
    9.0456    1.2066   24.4674 C   0  0  0  0  0  0  0  0  0  0  0  0
    9.4863    2.2292   24.9795 O   0  0  0  0  0  0  0  0  0  0  0  0
    6.6761    4.3058   21.3835 H   0  0  0  0  0  0  0  0  0  0  0  0
    5.0791    3.9746   22.1027 H   0  0  0  0  0  0  0  0  0  0  0  0
    6.1453    5.2019   22.8276 H   0  0  0  0  0  0  0  0  0  0  0  0
    7.3137    2.5057   22.6724 H   0  0  0  0  0  0  0  0  0  0  0  0
    7.3761    2.2441   26.0383 H   0  0  0  0  0  0  0  0  0  0  0  0
    5.9836    1.2548   25.6097 H   0  0  0  0  0  0  0  0  0  0  0  0
    7.3847   -1.1255   24.8977 H   0  0  0  0  0  0  0  0  0  0  0  0
    6.1369   -0.3240   23.9171 H   0  0  0  0  0  0  0  0  0  0  0  0
    7.1542   -1.0131   18.4128 H   0  0  0  0  0  0  0  0  0  0  0  0
    4.3211    1.4446   16.6750 H   0  0  0  0  0  0  0  0  0  0  0  0
    2.7148    2.7213   18.0308 H   0  0  0  0  0  0  0  0  0  0  0  0
    1.7760    3.3010   20.2481 H   0  0  0  0  0  0  0  0  0  0  0  0
    2.7425    2.3254   22.3146 H   0  0  0  0  0  0  0  0  0  0  0  0
    4.6184    0.7610   22.1871 H   0  0  0  0  0  0  0  0  0  0  0  0
    5.9166   -2.7279   20.7559 H   0  0  0  0  0  0  0  0  0  0  0  0
    5.2210   -1.8698   22.1359 H   0  0  0  0  0  0  0  0  0  0  0  0
    8.0878   -2.6946   21.6123 H   0  0  0  0  0  0  0  0  0  0  0  0
    7.9938   -3.3991   24.0956 H   0  0  0  0  0  0  0  0  0  0  0  0
    6.2667   -3.0462   24.0349 H   0  0  0  0  0  0  0  0  0  0  0  0
    7.6181   -5.1957   22.5164 H   0  0  0  0  0  0  0  0  0  0  0  0
    4.3264   -3.5033   23.4876 H   0  0  0  0  0  0  0  0  0  0  0  0
    2.1278   -7.7304   22.1969 H   0  0  0  0  0  0  0  0  0  0  0  0
    2.6532   -7.5677   20.4892 H   0  0  0  0  0  0  0  0  0  0  0  0
    1.5243   -6.3968   21.2362 H   0  0  0  0  0  0  0  0  0  0  0  0
   10.0167   -2.6598   21.9702 H   0  0  0  0  0  0  0  0  0  0  0  0
   13.2711   -0.3500   23.4933 H   0  0  0  0  0  0  0  0  0  0  0  0
   11.6551    1.2836   24.4787 H   0  0  0  0  0  0  0  0  0  0  0  0
  1  2  1  0
  2  3  1  0
  3  4  2  0
  3  5  1  0
  5  6  1  0
  6  7  1  0
  8  7  1  1
  8  9  1  0
  9 10  2  0
  9 11  1  0
 11 12  1  0
 12 13  2  0
 13 14  1  0
 14 15  2  0
 15 16  1  0
 16 17  2  0
 17 18  1  0
 18 19  2  0
 19 20  1  0
 20 21  2  0
 11 22  1  0
 22 23  1  0
 23 24  1  0
 24 25  1  0
 25 26  1  0
 26 27  2  0
 27 28  1  0
 28 29  2  0
 29 30  1  0
 29 31  1  0
  8 32  1  0
 32 33  2  0
 33 34  1  0
 34 35  1  0
 34 36  2  0
 36 37  1  0
 37 38  2  0
 38 39  1  0
 39 40  2  0
 39  6  1  0
 23  8  1  0
 31 26  1  0
 38 32  1  0
 21 12  1  0
 21 16  1  0
  1 41  1  0
  1 42  1  0
  1 43  1  0
  2 44  1  0
  5 45  1  0
  5 46  1  0
  7 47  1  0
  7 48  1  0
 13 49  1  0
 15 50  1  0
 17 51  1  0
 18 52  1  0
 19 53  1  0
 20 54  1  0
 22 55  1  0
 22 56  1  0
 23 57  1  6
 24 58  1  0
 24 59  1  0
 25 60  1  0
 27 61  1  0
 30 62  1  0
 30 63  1  0
 30 64  1  0
 33 65  1  0
 36 66  1  0
 37 67  1  0
M  END
>  <RMSD>  (57) 
0.18458779064147665

$$$$

     RDKit          3D

 57 61  0  0  0  0  0  0  0  0999 V2000
    6.1128    4.2710   22.3554 C   0  0  0  0  0  0  0  0  0  0  0  0
    6.7076    3.2600   23.1990 N   0  0  0  0  0  0  0  0  0  0  0  0
    6.2146    3.0299   24.4337 C   0  0  0  0  0  0  0  0  0  0  0  0
    5.3371    3.7070   24.9502 O   0  0  0  0  0  0  0  0  0  0  0  0
    6.7694    1.8233   25.2009 C   0  0  0  0  0  0  0  0  0  0  0  0
    7.6667    0.9456   24.4786 N   0  0  0  0  0  0  0  0  0  0  0  0
    7.2019   -0.3818   24.1139 C   0  0  0  0  0  0  0  0  0  0  0  0
    7.9203   -0.9132   22.8466 C   0  0  2  0  0  0  0  0  0  0  0  0
    7.5387   -0.0232   21.6349 C   0  0  0  0  0  0  0  0  0  0  0  0
    8.0108    1.0543   21.3340 O   0  0  0  0  0  0  0  0  0  0  0  0
    6.5306   -0.6601   20.9417 N   0  0  0  0  0  0  0  0  0  0  0  0
    5.8813   -0.0599   19.8302 C   0  0  0  0  0  0  0  0  0  0  0  0
    6.3045   -0.3486   18.5589 C   0  0  0  0  0  0  0  0  0  0  0  0
    5.7671    0.1752   17.4282 N   0  0  0  0  0  0  0  0  0  0  0  0
    4.7642    1.0131   17.5654 C   0  0  0  0  0  0  0  0  0  0  0  0
    4.2018    1.3807   18.8228 C   0  0  0  0  0  0  0  0  0  0  0  0
    3.1178    2.2969   18.9371 C   0  0  0  0  0  0  0  0  0  0  0  0
    2.6090    2.6168   20.1685 C   0  0  0  0  0  0  0  0  0  0  0  0
    3.1472    2.0386   21.3411 C   0  0  0  0  0  0  0  0  0  0  0  0
    4.2044    1.1658   21.2584 C   0  0  0  0  0  0  0  0  0  0  0  0
    4.7650    0.8191   19.9968 C   0  0  0  0  0  0  0  0  0  0  0  0
    6.1377   -1.9275   21.5308 C   0  0  0  0  0  0  0  0  0  0  0  0
    7.3526   -2.2822   22.3927 C   0  0  2  0  0  0  0  0  0  0  0  0
    7.0750   -3.2887   23.5172 C   0  0  0  0  0  0  0  0  0  0  0  0
    6.7512   -4.6231   23.0038 C   0  0  0  0  0  0  0  0  0  0  0  0
    6.4979   -5.6667   22.5745 N   0  0  0  0  0  0  0  0  0  0  0  0
    9.4091   -0.8470   23.1195 C   0  0  0  0  0  0  0  0  0  0  0  0
   10.3139   -1.7719   22.5858 C   0  0  0  0  0  0  0  0  0  0  0  0
   11.6741   -1.5760   22.7428 C   0  0  0  0  0  0  0  0  0  0  0  0
   12.7707   -2.7138   22.0135 Cl  0  0  0  0  0  0  0  0  0  0  0  0
   12.1820   -0.4803   23.4405 C   0  0  0  0  0  0  0  0  0  0  0  0
   11.2924    0.4273   23.9872 C   0  0  0  0  0  0  0  0  0  0  0  0
    9.9145    0.2514   23.8369 C   0  0  0  0  0  0  0  0  0  0  0  0
    8.9946    1.2743   24.4443 C   0  0  0  0  0  0  0  0  0  0  0  0
    9.4017    2.3500   24.8644 O   0  0  0  0  0  0  0  0  0  0  0  0
    6.1404    5.2574   22.8226 H   0  0  0  0  0  0  0  0  0  0  0  0
    5.0723    4.0217   22.1348 H   0  0  0  0  0  0  0  0  0  0  0  0
    6.6642    4.2983   21.4172 H   0  0  0  0  0  0  0  0  0  0  0  0
    7.5519    2.8047   22.8810 H   0  0  0  0  0  0  0  0  0  0  0  0
    7.2584    2.1893   26.1116 H   0  0  0  0  0  0  0  0  0  0  0  0
    5.9035    1.2391   25.5295 H   0  0  0  0  0  0  0  0  0  0  0  0
    6.1257   -0.3221   23.9263 H   0  0  0  0  0  0  0  0  0  0  0  0
    7.3648   -1.0723   24.9527 H   0  0  0  0  0  0  0  0  0  0  0  0
    7.1415   -1.0271   18.4071 H   0  0  0  0  0  0  0  0  0  0  0  0
    4.3362    1.4440   16.6566 H   0  0  0  0  0  0  0  0  0  0  0  0
    2.7056    2.7469   18.0358 H   0  0  0  0  0  0  0  0  0  0  0  0
    1.7867    3.3227   20.2620 H   0  0  0  0  0  0  0  0  0  0  0  0
    2.7499    2.3111   22.3180 H   0  0  0  0  0  0  0  0  0  0  0  0
    4.6239    0.7326   22.1629 H   0  0  0  0  0  0  0  0  0  0  0  0
    5.9511   -2.6745   20.7588 H   0  0  0  0  0  0  0  0  0  0  0  0
    5.2317   -1.8571   22.1532 H   0  0  0  0  0  0  0  0  0  0  0  0
    8.0735   -2.7453   21.7175 H   0  0  0  0  0  0  0  0  0  0  0  0
    6.2414   -2.9524   24.1354 H   0  0  0  0  0  0  0  0  0  0  0  0
    7.9358   -3.3827   24.1859 H   0  0  0  0  0  0  0  0  0  0  0  0
    9.9694   -2.6483   22.0476 H   0  0  0  0  0  0  0  0  0  0  0  0
   13.2562   -0.3458   23.5330 H   0  0  0  0  0  0  0  0  0  0  0  0
   11.6593    1.2879   24.5384 H   0  0  0  0  0  0  0  0  0  0  0  0
  1  2  1  0
  2  3  1  0
  3  4  2  0
  3  5  1  0
  5  6  1  0
  6  7  1  0
  8  7  1  1
  8  9  1  0
  9 10  2  0
  9 11  1  0
 11 12  1  0
 12 13  2  0
 13 14  1  0
 14 15  2  0
 15 16  1  0
 16 17  2  0
 17 18  1  0
 18 19  2  0
 19 20  1  0
 20 21  2  0
 11 22  1  0
 22 23  1  0
 23 24  1  0
 24 25  1  0
 25 26  3  0
  8 27  1  0
 27 28  2  0
 28 29  1  0
 29 30  1  0
 29 31  2  0
 31 32  1  0
 32 33  2  0
 33 34  1  0
 34 35  2  0
 34  6  1  0
 23  8  1  0
 33 27  1  0
 21 12  1  0
 21 16  1  0
  1 36  1  0
  1 37  1  0
  1 38  1  0
  2 39  1  0
  5 40  1  0
  5 41  1  0
  7 42  1  0
  7 43  1  0
 13 44  1  0
 15 45  1  0
 17 46  1  0
 18 47  1  0
 19 48  1  0
 20 49  1  0
 22 50  1  0
 22 51  1  0
 23 52  1  6
 24 53  1  0
 24 54  1  0
 28 55  1  0
 31 56  1  0
 32 57  1  0
M  END
>  <RMSD>  (58) 
0.17216436247350847

$$$$

     RDKit          3D

 38 40  0  0  0  0  0  0  0  0999 V2000
    9.1096   -0.8076   20.6638 O   0  0  0  0  0  0  0  0  0  0  0  0
    7.9644   -1.1800   20.8689 C   0  0  0  0  0  0  0  0  0  0  0  0
    6.8514   -0.1690   21.0572 C   0  0  0  0  0  0  0  0  0  0  0  0
    5.9356    0.0140   19.8553 C   0  0  0  0  0  0  0  0  0  0  0  0
    6.2774   -0.3602   18.5757 C   0  0  0  0  0  0  0  0  0  0  0  0
    5.6458    0.0344   17.4308 N   0  0  0  0  0  0  0  0  0  0  0  0
    4.6716    0.8995   17.5665 C   0  0  0  0  0  0  0  0  0  0  0  0
    4.1815    1.3451   18.8333 C   0  0  0  0  0  0  0  0  0  0  0  0
    3.2277    2.3879   18.9594 C   0  0  0  0  0  0  0  0  0  0  0  0
    2.6705    2.6679   20.1772 C   0  0  0  0  0  0  0  0  0  0  0  0
    3.0739    1.9509   21.3215 C   0  0  0  0  0  0  0  0  0  0  0  0
    4.0964    1.0384   21.2503 C   0  0  0  0  0  0  0  0  0  0  0  0
    4.7271    0.7687   20.0061 C   0  0  0  0  0  0  0  0  0  0  0  0
    7.6182   -2.5016   20.9255 N   0  0  0  0  0  0  0  0  0  0  0  0
    6.2804   -2.9659   21.2653 C   0  0  0  0  0  0  0  0  0  0  0  0
    6.1354   -3.4476   22.6953 C   0  0  0  0  0  0  0  0  0  0  0  0
    6.9068   -4.3632   23.2872 C   0  0  0  0  0  0  0  0  0  0  0  0
    8.0708   -5.0748   22.6393 C   0  0  0  0  0  0  0  0  0  0  0  0
    9.1459   -4.1588   22.0311 C   0  0  0  0  0  0  0  0  0  0  0  0
    8.6610   -3.4980   20.7442 C   0  0  0  0  0  0  0  0  0  0  0  0
    6.2804   -0.4296   21.9542 H   0  0  0  0  0  0  0  0  0  0  0  0
    7.3698    0.7686   21.2805 H   0  0  0  0  0  0  0  0  0  0  0  0
    7.1226   -1.0178   18.4036 H   0  0  0  0  0  0  0  0  0  0  0  0
    4.2164    1.2653   16.6415 H   0  0  0  0  0  0  0  0  0  0  0  0
    2.9619    2.9784   18.0876 H   0  0  0  0  0  0  0  0  0  0  0  0
    1.9300    3.4562   20.2819 H   0  0  0  0  0  0  0  0  0  0  0  0
    2.6155    2.1600   22.2822 H   0  0  0  0  0  0  0  0  0  0  0  0
    4.4299    0.5404   22.1553 H   0  0  0  0  0  0  0  0  0  0  0  0
    6.0151   -3.7682   20.5570 H   0  0  0  0  0  0  0  0  0  0  0  0
    5.5759   -2.1497   21.0873 H   0  0  0  0  0  0  0  0  0  0  0  0
    5.2990   -3.0373   23.2623 H   0  0  0  0  0  0  0  0  0  0  0  0
    6.6806   -4.6184   24.3225 H   0  0  0  0  0  0  0  0  0  0  0  0
    7.6874   -5.6949   21.8233 H   0  0  0  0  0  0  0  0  0  0  0  0
    8.5140   -5.7641   23.3639 H   0  0  0  0  0  0  0  0  0  0  0  0
   10.0260   -4.7643   21.7717 H   0  0  0  0  0  0  0  0  0  0  0  0
    9.4585   -3.3925   22.7516 H   0  0  0  0  0  0  0  0  0  0  0  0
    9.4799   -2.9987   20.2238 H   0  0  0  0  0  0  0  0  0  0  0  0
    8.2454   -4.2833   20.0991 H   0  0  0  0  0  0  0  0  0  0  0  0
  1  2  2  0
  2  3  1  0
  3  4  1  0
  4  5  2  0
  5  6  1  0
  6  7  2  0
  7  8  1  0
  8  9  2  0
  9 10  1  0
 10 11  2  0
 11 12  1  0
 12 13  2  0
  2 14  1  0
 14 15  1  0
 15 16  1  0
 16 17  2  0
 17 18  1  0
 18 19  1  0
 19 20  1  0
 13  4  1  0
 20 14  1  0
 13  8  1  0
  3 21  1  0
  3 22  1  0
  5 23  1  0
  7 24  1  0
  9 25  1  0
 10 26  1  0
 11 27  1  0
 12 28  1  0
 15 29  1  0
 15 30  1  0
 16 31  1  0
 17 32  1  0
 18 33  1  0
 18 34  1  0
 19 35  1  0
 19 36  1  0
 20 37  1  0
 20 38  1  0
M  END
>  <RMSD>  (59) 
0.16052776162025836

$$$$

     RDKit          3D

 59 64  0  0  0  0  0  0  0  0999 V2000
    7.0684   -3.2834   23.5075 C   0  0  0  0  0  0  0  0  0  0  0  0
    7.3572   -2.2800   22.3984 C   0  0  1  0  0  0  0  0  0  0  0  0
    6.1402   -1.9258   21.5326 C   0  0  0  0  0  0  0  0  0  0  0  0
    6.5344   -0.6614   20.9403 N   0  0  0  0  0  0  0  0  0  0  0  0
    5.8853   -0.0565   19.8315 C   0  0  0  0  0  0  0  0  0  0  0  0
    6.3045   -0.3455   18.5593 C   0  0  0  0  0  0  0  0  0  0  0  0
    5.7614    0.1742   17.4279 N   0  0  0  0  0  0  0  0  0  0  0  0
    4.7602    1.0119   17.5698 C   0  0  0  0  0  0  0  0  0  0  0  0
    4.2017    1.3826   18.8271 C   0  0  0  0  0  0  0  0  0  0  0  0
    3.1180    2.2988   18.9404 C   0  0  0  0  0  0  0  0  0  0  0  0
    2.6075    2.6184   20.1667 C   0  0  0  0  0  0  0  0  0  0  0  0
    3.1443    2.0337   21.3391 C   0  0  0  0  0  0  0  0  0  0  0  0
    4.2078    1.1709   21.2615 C   0  0  0  0  0  0  0  0  0  0  0  0
    4.7667    0.8237   20.0021 C   0  0  0  0  0  0  0  0  0  0  0  0
    7.5482   -0.0246   21.6245 C   0  0  0  0  0  0  0  0  0  0  0  0
    8.0179    1.0432   21.2999 O   0  0  0  0  0  0  0  0  0  0  0  0
    7.9304   -0.9051   22.8424 C   0  0  1  0  0  0  0  0  0  0  0  0
    7.2207   -0.3739   24.1159 C   0  0  0  0  0  0  0  0  0  0  0  0
    7.6970    0.9382   24.5088 N   0  0  0  0  0  0  0  0  0  0  0  0
    6.7660    1.8163   25.1963 C   0  0  0  0  0  0  0  0  0  0  0  0
    6.1411    2.8154   24.2696 C   0  0  0  0  0  0  0  0  0  0  0  0
    6.7244    3.5176   23.2434 C   0  0  0  0  0  0  0  0  0  0  0  0
    5.7029    4.3527   22.7623 C   0  0  0  0  0  0  0  0  0  0  0  0
    4.5714    4.1838   23.4406 N   0  0  0  0  0  0  0  0  0  0  0  0
    4.8573    3.2409   24.3528 N   0  0  0  0  0  0  0  0  0  0  0  0
    3.8374    2.7483   25.2500 C   0  0  0  0  0  0  0  0  0  0  0  0
    9.0176    1.2835   24.4388 C   0  0  0  0  0  0  0  0  0  0  0  0
    9.4306    2.3565   24.8550 O   0  0  0  0  0  0  0  0  0  0  0  0
    9.9300    0.2564   23.8206 C   0  0  0  0  0  0  0  0  0  0  0  0
   11.3077    0.4295   23.9681 C   0  0  0  0  0  0  0  0  0  0  0  0
   12.1993   -0.4785   23.4290 C   0  0  0  0  0  0  0  0  0  0  0  0
   11.6738   -1.5717   22.7443 C   0  0  0  0  0  0  0  0  0  0  0  0
   12.5224   -2.4620   22.2018 F   0  0  0  0  0  0  0  0  0  0  0  0
   10.3180   -1.7727   22.5787 C   0  0  0  0  0  0  0  0  0  0  0  0
    9.4175   -0.8430   23.1102 C   0  0  0  0  0  0  0  0  0  0  0  0
    7.9389   -3.4292   24.1555 H   0  0  0  0  0  0  0  0  0  0  0  0
    6.7859   -4.2614   23.1035 H   0  0  0  0  0  0  0  0  0  0  0  0
    6.2486   -2.9411   24.1468 H   0  0  0  0  0  0  0  0  0  0  0  0
    8.0835   -2.7285   21.7167 H   0  0  0  0  0  0  0  0  0  0  0  0
    5.2309   -1.8480   22.1550 H   0  0  0  0  0  0  0  0  0  0  0  0
    5.9420   -2.6677   20.7548 H   0  0  0  0  0  0  0  0  0  0  0  0
    7.1376   -1.0280   18.4064 H   0  0  0  0  0  0  0  0  0  0  0  0
    4.3340    1.4396   16.6598 H   0  0  0  0  0  0  0  0  0  0  0  0
    2.7111    2.7461   18.0339 H   0  0  0  0  0  0  0  0  0  0  0  0
    1.7896    3.3300   20.2582 H   0  0  0  0  0  0  0  0  0  0  0  0
    2.7388    2.3043   22.3095 H   0  0  0  0  0  0  0  0  0  0  0  0
    4.6339    0.7249   22.1579 H   0  0  0  0  0  0  0  0  0  0  0  0
    7.3807   -1.0755   24.9472 H   0  0  0  0  0  0  0  0  0  0  0  0
    6.1446   -0.2993   23.9309 H   0  0  0  0  0  0  0  0  0  0  0  0
    6.0042    1.1954   25.6927 H   0  0  0  0  0  0  0  0  0  0  0  0
    7.3315    2.3440   25.9718 H   0  0  0  0  0  0  0  0  0  0  0  0
    7.7574    3.4478   22.9290 H   0  0  0  0  0  0  0  0  0  0  0  0
    5.7553    5.0665   21.9535 H   0  0  0  0  0  0  0  0  0  0  0  0
    2.9365    3.3368   25.1032 H   0  0  0  0  0  0  0  0  0  0  0  0
    3.6067    1.6910   25.0810 H   0  0  0  0  0  0  0  0  0  0  0  0
    4.1559    2.8521   26.2893 H   0  0  0  0  0  0  0  0  0  0  0  0
   11.6673    1.2922   24.5172 H   0  0  0  0  0  0  0  0  0  0  0  0
   13.2774   -0.3588   23.5128 H   0  0  0  0  0  0  0  0  0  0  0  0
    9.9852   -2.6546   22.0389 H   0  0  0  0  0  0  0  0  0  0  0  0
  1  2  1  0
  2  3  1  0
  3  4  1  0
  4  5  1  0
  5  6  2  0
  6  7  1  0
  7  8  2  0
  8  9  1  0
  9 10  2  0
 10 11  1  0
 11 12  2  0
 12 13  1  0
 13 14  2  0
  4 15  1  0
 15 16  2  0
 15 17  1  0
 17 18  1  1
 18 19  1  0
 19 20  1  0
 20 21  1  0
 21 22  2  0
 22 23  1  0
 23 24  2  0
 24 25  1  0
 25 26  1  0
 19 27  1  0
 27 28  2  0
 27 29  1  0
 29 30  2  0
 30 31  1  0
 31 32  2  0
 32 33  1  0
 32 34  1  0
 34 35  2  0
 17  2  1  0
 25 21  1  0
 35 29  1  0
 14  5  1  0
 35 17  1  0
 14  9  1  0
  1 36  1  0
  1 37  1  0
  1 38  1  0
  2 39  1  6
  3 40  1  0
  3 41  1  0
  6 42  1  0
  8 43  1  0
 10 44  1  0
 11 45  1  0
 12 46  1  0
 13 47  1  0
 18 48  1  0
 18 49  1  0
 20 50  1  0
 20 51  1  0
 22 52  1  0
 23 53  1  0
 26 54  1  0
 26 55  1  0
 26 56  1  0
 30 57  1  0
 31 58  1  0
 34 59  1  0
M  END
>  <RMSD>  (60) 
0.17180504896291504

$$$$

     RDKit          3D

 66 71  0  0  0  0  0  0  0  0999 V2000
    6.1104    4.2711   22.3440 C   0  0  0  0  0  0  0  0  0  0  0  0
    6.7240    3.2659   23.1917 N   0  0  0  0  0  0  0  0  0  0  0  0
    6.2214    3.0155   24.4194 C   0  0  0  0  0  0  0  0  0  0  0  0
    5.3390    3.6892   24.9326 O   0  0  0  0  0  0  0  0  0  0  0  0
    6.7909    1.8132   25.1926 C   0  0  0  0  0  0  0  0  0  0  0  0
    7.6854    0.9242   24.4843 N   0  0  0  0  0  0  0  0  0  0  0  0
    7.2040   -0.3931   24.1146 C   0  0  0  0  0  0  0  0  0  0  0  0
    7.9222   -0.9265   22.8558 C   0  0  2  0  0  0  0  0  0  0  0  0
    7.5345   -0.0469   21.6301 C   0  0  0  0  0  0  0  0  0  0  0  0
    7.9897    1.0365   21.3174 O   0  0  0  0  0  0  0  0  0  0  0  0
    6.5348   -0.6894   20.9353 N   0  0  0  0  0  0  0  0  0  0  0  0
    5.8855   -0.0687   19.8299 C   0  0  0  0  0  0  0  0  0  0  0  0
    6.3087   -0.3375   18.5545 C   0  0  0  0  0  0  0  0  0  0  0  0
    5.7613    0.1846   17.4248 N   0  0  0  0  0  0  0  0  0  0  0  0
    4.7562    1.0146   17.5723 C   0  0  0  0  0  0  0  0  0  0  0  0
    4.2078    1.3887   18.8348 C   0  0  0  0  0  0  0  0  0  0  0  0
    3.1163    2.2933   18.9431 C   0  0  0  0  0  0  0  0  0  0  0  0
    2.5972    2.6138   20.1696 C   0  0  0  0  0  0  0  0  0  0  0  0
    3.1425    2.0405   21.3409 C   0  0  0  0  0  0  0  0  0  0  0  0
    4.2059    1.1723   21.2595 C   0  0  0  0  0  0  0  0  0  0  0  0
    4.7797    0.8292   20.0041 C   0  0  0  0  0  0  0  0  0  0  0  0
    6.1394   -1.9547   21.5260 C   0  0  0  0  0  0  0  0  0  0  0  0
    7.3465   -2.3076   22.4211 C   0  0  2  0  0  0  0  0  0  0  0  0
    6.9559   -3.3124   23.5175 C   0  0  0  0  0  0  0  0  0  0  0  0
    8.0548   -3.7061   24.3768 N   0  0  0  0  0  0  0  0  0  0  0  0
    7.8961   -4.5680   25.4292 C   0  0  0  0  0  0  0  0  0  0  0  0
    6.6491   -5.1331   25.8001 C   0  0  0  0  0  0  0  0  0  0  0  0
    6.5147   -5.8908   26.8784 N   0  0  0  0  0  0  0  0  0  0  0  0
    7.6119   -6.1245   27.6064 C   0  0  0  0  0  0  0  0  0  0  0  0
    8.8437   -5.6347   27.2075 C   0  0  0  0  0  0  0  0  0  0  0  0
    8.9926   -4.8656   26.1270 N   0  0  0  0  0  0  0  0  0  0  0  0
    9.4147   -0.8555   23.1076 C   0  0  0  0  0  0  0  0  0  0  0  0
   10.3185   -1.7766   22.5653 C   0  0  0  0  0  0  0  0  0  0  0  0
   11.6835   -1.5829   22.7112 C   0  0  0  0  0  0  0  0  0  0  0  0
   12.7971   -2.7164   21.9945 Cl  0  0  0  0  0  0  0  0  0  0  0  0
   12.1904   -0.4886   23.4124 C   0  0  0  0  0  0  0  0  0  0  0  0
   11.3019    0.4131   23.9655 C   0  0  0  0  0  0  0  0  0  0  0  0
    9.9281    0.2345   23.8252 C   0  0  0  0  0  0  0  0  0  0  0  0
    9.0143    1.2501   24.4508 C   0  0  0  0  0  0  0  0  0  0  0  0
    9.4163    2.3228   24.8860 O   0  0  0  0  0  0  0  0  0  0  0  0
    6.1322    5.2591   22.8176 H   0  0  0  0  0  0  0  0  0  0  0  0
    6.6709    4.2977   21.4061 H   0  0  0  0  0  0  0  0  0  0  0  0
    5.0639    4.0146   22.1305 H   0  0  0  0  0  0  0  0  0  0  0  0
    7.4848    2.7138   22.8191 H   0  0  0  0  0  0  0  0  0  0  0  0
    7.2986    2.2117   26.0777 H   0  0  0  0  0  0  0  0  0  0  0  0
    5.9175    1.2464   25.5274 H   0  0  0  0  0  0  0  0  0  0  0  0
    6.1303   -0.3134   23.9124 H   0  0  0  0  0  0  0  0  0  0  0  0
    7.3587   -1.1073   24.9346 H   0  0  0  0  0  0  0  0  0  0  0  0
    7.1394   -1.0226   18.4008 H   0  0  0  0  0  0  0  0  0  0  0  0
    4.3345    1.4368   16.6585 H   0  0  0  0  0  0  0  0  0  0  0  0
    2.7211    2.7297   18.0290 H   0  0  0  0  0  0  0  0  0  0  0  0
    1.7800    3.3261   20.2562 H   0  0  0  0  0  0  0  0  0  0  0  0
    2.7451    2.3196   22.3153 H   0  0  0  0  0  0  0  0  0  0  0  0
    4.6208    0.7367   22.1626 H   0  0  0  0  0  0  0  0  0  0  0  0
    5.2182   -1.8502   22.1243 H   0  0  0  0  0  0  0  0  0  0  0  0
    5.9291   -2.6860   20.7404 H   0  0  0  0  0  0  0  0  0  0  0  0
    8.1139   -2.7592   21.7842 H   0  0  0  0  0  0  0  0  0  0  0  0
    6.5418   -4.2224   23.0495 H   0  0  0  0  0  0  0  0  0  0  0  0
    6.1436   -2.8887   24.1409 H   0  0  0  0  0  0  0  0  0  0  0  0
    9.0107   -3.3827   24.2711 H   0  0  0  0  0  0  0  0  0  0  0  0
    5.7486   -4.9518   25.2166 H   0  0  0  0  0  0  0  0  0  0  0  0
    7.4855   -6.6964   28.5220 H   0  0  0  0  0  0  0  0  0  0  0  0
    9.7399   -5.8468   27.7940 H   0  0  0  0  0  0  0  0  0  0  0  0
    9.9697   -2.6398   22.0107 H   0  0  0  0  0  0  0  0  0  0  0  0
   13.2604   -0.3533   23.5148 H   0  0  0  0  0  0  0  0  0  0  0  0
   11.6247    1.2905   24.5132 H   0  0  0  0  0  0  0  0  0  0  0  0
  1  2  1  0
  2  3  1  0
  3  4  2  0
  3  5  1  0
  5  6  1  0
  6  7  1  0
  8  7  1  1
  8  9  1  0
  9 10  2  0
  9 11  1  0
 11 12  1  0
 12 13  2  0
 13 14  1  0
 14 15  2  0
 15 16  1  0
 16 17  2  0
 17 18  1  0
 18 19  2  0
 19 20  1  0
 20 21  2  0
 11 22  1  0
 22 23  1  0
 23 24  1  0
 24 25  1  0
 25 26  1  0
 26 27  2  0
 27 28  1  0
 28 29  2  0
 29 30  1  0
 30 31  2  0
  8 32  1  0
 32 33  2  0
 33 34  1  0
 34 35  1  0
 34 36  2  0
 36 37  1  0
 37 38  2  0
 38 39  1  0
 39 40  2  0
 39  6  1  0
 23  8  1  0
 31 26  1  0
 38 32  1  0
 21 12  1  0
 21 16  1  0
  1 41  1  0
  1 42  1  0
  1 43  1  0
  2 44  1  0
  5 45  1  0
  5 46  1  0
  7 47  1  0
  7 48  1  0
 13 49  1  0
 15 50  1  0
 17 51  1  0
 18 52  1  0
 19 53  1  0
 20 54  1  0
 22 55  1  0
 22 56  1  0
 23 57  1  6
 24 58  1  0
 24 59  1  0
 25 60  1  0
 27 61  1  0
 29 62  1  0
 30 63  1  0
 33 64  1  0
 36 65  1  0
 37 66  1  0
M  END
>  <RMSD>  (61) 
0.17835134246176446

$$$$

     RDKit          3D

 50 53  0  0  0  0  0  0  0  0999 V2000
   11.8656   -2.9134   18.4236 C   0  0  0  0  0  0  0  0  0  0  0  0
   10.9481   -2.9700   19.6370 C   0  0  1  0  0  0  0  0  0  0  0  0
   11.5835   -3.7233   20.7996 C   0  0  0  0  0  0  0  0  0  0  0  0
   10.5092   -4.0659   21.8289 C   0  0  0  0  0  0  0  0  0  0  0  0
    9.5092   -2.9322   22.1217 C   0  0  2  0  0  0  0  0  0  0  0  0
    9.1660   -2.9202   23.6275 C   0  0  0  0  0  0  0  0  0  0  0  0
    7.7489   -2.3553   23.7666 C   0  0  0  0  0  0  0  0  0  0  0  0
    7.1873   -2.4670   22.4138 N   0  0  0  0  0  0  0  0  0  0  0  0
    6.2989   -1.4537   22.0771 C   0  0  0  0  0  0  0  0  0  0  0  0
    5.3479   -1.2467   22.8001 O   0  0  0  0  0  0  0  0  0  0  0  0
    6.7255   -0.4587   20.9915 C   0  0  0  0  0  0  0  0  0  0  0  0
    5.8356   -0.1006   19.8364 C   0  0  0  0  0  0  0  0  0  0  0  0
    6.2731   -0.3647   18.5702 C   0  0  0  0  0  0  0  0  0  0  0  0
    5.7131    0.1047   17.4286 N   0  0  0  0  0  0  0  0  0  0  0  0
    4.7070    0.9331   17.5706 C   0  0  0  0  0  0  0  0  0  0  0  0
    4.1739    1.3343   18.8277 C   0  0  0  0  0  0  0  0  0  0  0  0
    3.1816    2.3387   18.9552 C   0  0  0  0  0  0  0  0  0  0  0  0
    2.6884    2.6935   20.1835 C   0  0  0  0  0  0  0  0  0  0  0  0
    3.1289    2.0052   21.3327 C   0  0  0  0  0  0  0  0  0  0  0  0
    4.0915    1.0350   21.2489 C   0  0  0  0  0  0  0  0  0  0  0  0
    4.6920    0.7273   19.9981 C   0  0  0  0  0  0  0  0  0  0  0  0
    8.0999   -3.1508   21.5190 C   0  0  0  0  0  0  0  0  0  0  0  0
   10.0650   -1.5851   21.6212 C   0  0  0  0  0  0  0  0  0  0  0  0
   10.5562   -1.5750   20.1510 C   0  0  0  0  0  0  0  0  0  0  0  0
   12.1034   -3.9279   18.0856 H   0  0  0  0  0  0  0  0  0  0  0  0
   11.3963   -2.3745   17.5943 H   0  0  0  0  0  0  0  0  0  0  0  0
   12.8118   -2.4094   18.6610 H   0  0  0  0  0  0  0  0  0  0  0  0
   10.0264   -3.5017   19.3424 H   0  0  0  0  0  0  0  0  0  0  0  0
   12.3524   -3.0925   21.2663 H   0  0  0  0  0  0  0  0  0  0  0  0
   12.0949   -4.6283   20.4493 H   0  0  0  0  0  0  0  0  0  0  0  0
    9.9285   -4.8993   21.4425 H   0  0  0  0  0  0  0  0  0  0  0  0
   10.9810   -4.3997   22.7570 H   0  0  0  0  0  0  0  0  0  0  0  0
    9.9103   -2.3514   24.1930 H   0  0  0  0  0  0  0  0  0  0  0  0
    9.1773   -3.9556   23.9883 H   0  0  0  0  0  0  0  0  0  0  0  0
    7.7611   -1.3029   24.0846 H   0  0  0  0  0  0  0  0  0  0  0  0
    7.1375   -2.9047   24.4894 H   0  0  0  0  0  0  0  0  0  0  0  0
    6.8951    0.4734   21.5506 H   0  0  0  0  0  0  0  0  0  0  0  0
    7.6890   -0.7545   20.5732 H   0  0  0  0  0  0  0  0  0  0  0  0
    7.1648   -0.9815   18.4464 H   0  0  0  0  0  0  0  0  0  0  0  0
    4.2612    1.3434   16.6649 H   0  0  0  0  0  0  0  0  0  0  0  0
    2.8244    2.8423   18.0645 H   0  0  0  0  0  0  0  0  0  0  0  0
    1.9472    3.4839   20.2757 H   0  0  0  0  0  0  0  0  0  0  0  0
    2.7040    2.2598   22.2973 H   0  0  0  0  0  0  0  0  0  0  0  0
    4.3970    0.4750   22.1274 H   0  0  0  0  0  0  0  0  0  0  0  0
    7.9925   -2.7964   20.4906 H   0  0  0  0  0  0  0  0  0  0  0  0
    7.8605   -4.2224   21.5089 H   0  0  0  0  0  0  0  0  0  0  0  0
   10.8985   -1.3084   22.2778 H   0  0  0  0  0  0  0  0  0  0  0  0
    9.2949   -0.8236   21.7580 H   0  0  0  0  0  0  0  0  0  0  0  0
   11.4366   -0.9148   20.0967 H   0  0  0  0  0  0  0  0  0  0  0  0
    9.8128   -1.1355   19.4719 H   0  0  0  0  0  0  0  0  0  0  0  0
  1  2  1  0
  2  3  1  0
  3  4  1  0
  5  4  1  1
  5  6  1  0
  6  7  1  0
  7  8  1  0
  8  9  1  0
  9 10  2  0
  9 11  1  0
 11 12  1  0
 12 13  2  0
 13 14  1  0
 14 15  2  0
 15 16  1  0
 16 17  2  0
 17 18  1  0
 18 19  2  0
 19 20  1  0
 20 21  2  0
  8 22  1  0
  5 23  1  0
 23 24  1  0
 24  2  1  0
 22  5  1  0
 21 12  1  0
 21 16  1  0
  1 25  1  0
  1 26  1  0
  1 27  1  0
  2 28  1  6
  3 29  1  0
  3 30  1  0
  4 31  1  0
  4 32  1  0
  6 33  1  0
  6 34  1  0
  7 35  1  0
  7 36  1  0
 11 37  1  0
 11 38  1  0
 13 39  1  0
 15 40  1  0
 17 41  1  0
 18 42  1  0
 19 43  1  0
 20 44  1  0
 22 45  1  0
 22 46  1  0
 23 47  1  0
 23 48  1  0
 24 49  1  0
 24 50  1  0
M  END
>  <RMSD>  (62) 
0.1323709198375078

$$$$

     RDKit          3D

 67 73  0  0  0  0  0  0  0  0999 V2000
    7.1985   -3.2406   23.4916 C   0  0  0  0  0  0  0  0  0  0  0  0
    7.4028   -2.2428   22.3637 C   0  0  1  0  0  0  0  0  0  0  0  0
    6.1385   -1.9217   21.5521 C   0  0  0  0  0  0  0  0  0  0  0  0
    6.5092   -0.6757   20.9079 N   0  0  0  0  0  0  0  0  0  0  0  0
    5.8523   -0.0889   19.8058 C   0  0  0  0  0  0  0  0  0  0  0  0
    6.3089   -0.3447   18.5371 C   0  0  0  0  0  0  0  0  0  0  0  0
    5.7754    0.1863   17.4108 N   0  0  0  0  0  0  0  0  0  0  0  0
    4.7671    1.0135   17.5763 C   0  0  0  0  0  0  0  0  0  0  0  0
    4.2176    1.3863   18.8384 C   0  0  0  0  0  0  0  0  0  0  0  0
    3.1364    2.2988   18.9474 C   0  0  0  0  0  0  0  0  0  0  0  0
    2.6167    2.6198   20.1712 C   0  0  0  0  0  0  0  0  0  0  0  0
    3.1536    2.0529   21.3461 C   0  0  0  0  0  0  0  0  0  0  0  0
    4.2134    1.1797   21.2729 C   0  0  0  0  0  0  0  0  0  0  0  0
    4.7658    0.8149   20.0092 C   0  0  0  0  0  0  0  0  0  0  0  0
    7.6607   -0.1040   21.4037 C   0  0  0  0  0  0  0  0  0  0  0  0
    8.2506    0.8097   20.8698 O   0  0  0  0  0  0  0  0  0  0  0  0
    8.0060   -0.8466   22.7162 C   0  0  1  0  0  0  0  0  0  0  0  0
    7.2800   -0.1696   23.9079 C   0  0  0  0  0  0  0  0  0  0  0  0
    7.9114    1.0770   24.2941 N   0  0  0  0  0  0  0  0  0  0  0  0
    7.1568    2.3120   24.4025 C   0  0  0  0  0  0  0  0  0  0  0  0
    7.1075    3.0555   23.0606 C   0  0  0  0  0  0  0  0  0  0  0  0
    6.5086    4.4136   23.2056 N   0  0  2  0  0  0  0  0  0  0  0  0
    5.0000    4.4345   23.5117 C   0  0  0  0  0  0  0  0  0  0  0  0
    4.4420    5.3523   22.4164 C   0  0  2  0  0  0  0  0  0  0  0  0
    5.3133    4.9943   21.2133 C   0  0  0  0  0  0  0  0  0  0  0  0
    6.5975    5.3204   21.9797 C   0  0  1  0  0  0  0  0  0  0  0  0
    6.2574    6.7314   22.4592 C   0  0  0  0  0  0  0  0  0  0  0  0
    4.8396    6.6964   22.7043 O   0  0  0  0  0  0  0  0  0  0  0  0
    9.2287    1.0735   24.6584 C   0  0  0  0  0  0  0  0  0  0  0  0
    9.7177    1.8850   25.4304 O   0  0  0  0  0  0  0  0  0  0  0  0
   10.0529    0.0450   23.9414 C   0  0  0  0  0  0  0  0  0  0  0  0
   11.4228    0.0537   24.1819 C   0  0  0  0  0  0  0  0  0  0  0  0
   12.2711   -0.7066   23.4037 C   0  0  0  0  0  0  0  0  0  0  0  0
   11.7181   -1.4949   22.3971 C   0  0  0  0  0  0  0  0  0  0  0  0
   12.7606   -2.4170   21.3567 Cl  0  0  0  0  0  0  0  0  0  0  0  0
   10.3549   -1.5753   22.1972 C   0  0  0  0  0  0  0  0  0  0  0  0
    9.4885   -0.8198   22.9927 C   0  0  0  0  0  0  0  0  0  0  0  0
    8.1153   -3.3858   24.0715 H   0  0  0  0  0  0  0  0  0  0  0  0
    6.8983   -4.2132   23.0865 H   0  0  0  0  0  0  0  0  0  0  0  0
    6.4113   -2.9150   24.1780 H   0  0  0  0  0  0  0  0  0  0  0  0
    8.1020   -2.6903   21.6519 H   0  0  0  0  0  0  0  0  0  0  0  0
    5.2554   -1.8140   22.2038 H   0  0  0  0  0  0  0  0  0  0  0  0
    5.9145   -2.6932   20.8065 H   0  0  0  0  0  0  0  0  0  0  0  0
    7.1606   -1.0096   18.4068 H   0  0  0  0  0  0  0  0  0  0  0  0
    4.3106    1.4304   16.6799 H   0  0  0  0  0  0  0  0  0  0  0  0
    2.7271    2.7218   18.0357 H   0  0  0  0  0  0  0  0  0  0  0  0
    1.7868    3.3163   20.2451 H   0  0  0  0  0  0  0  0  0  0  0  0
    2.7146    2.2998   22.3089 H   0  0  0  0  0  0  0  0  0  0  0  0
    4.6207    0.7661   22.1918 H   0  0  0  0  0  0  0  0  0  0  0  0
    7.3136   -0.8558   24.7624 H   0  0  0  0  0  0  0  0  0  0  0  0
    6.2288    0.0313   23.6820 H   0  0  0  0  0  0  0  0  0  0  0  0
    6.1445    2.0609   24.7511 H   0  0  0  0  0  0  0  0  0  0  0  0
    7.6579    2.9119   25.1697 H   0  0  0  0  0  0  0  0  0  0  0  0
    6.5327    2.4726   22.3350 H   0  0  0  0  0  0  0  0  0  0  0  0
    8.1156    3.1495   22.6424 H   0  0  0  0  0  0  0  0  0  0  0  0
    7.0296    4.8560   23.9805 H   0  0  0  0  0  0  0  0  0  0  0  0
    4.8429    4.8296   24.5150 H   0  0  0  0  0  0  0  0  0  0  0  0
    4.6055    3.4200   23.4201 H   0  0  0  0  0  0  0  0  0  0  0  0
    3.3578    5.3178   22.3006 H   0  0  0  0  0  0  0  0  0  0  0  0
    5.1491    5.6732   20.3783 H   0  0  0  0  0  0  0  0  0  0  0  0
    5.2264    3.9539   20.8856 H   0  0  0  0  0  0  0  0  0  0  0  0
    7.5544    5.2037   21.4721 H   0  0  0  0  0  0  0  0  0  0  0  0
    6.4703    7.4797   21.6892 H   0  0  0  0  0  0  0  0  0  0  0  0
    6.7829    7.0014   23.3843 H   0  0  0  0  0  0  0  0  0  0  0  0
   11.7954    0.7094   24.9602 H   0  0  0  0  0  0  0  0  0  0  0  0
   13.3456   -0.6540   23.5235 H   0  0  0  0  0  0  0  0  0  0  0  0
    9.9813   -2.2131   21.4050 H   0  0  0  0  0  0  0  0  0  0  0  0
  1  2  1  0
  2  3  1  0
  3  4  1  0
  4  5  1  0
  5  6  2  0
  6  7  1  0
  7  8  2  0
  8  9  1  0
  9 10  2  0
 10 11  1  0
 11 12  2  0
 12 13  1  0
 13 14  2  0
  4 15  1  0
 15 16  2  0
 15 17  1  0
 17 18  1  1
 18 19  1  0
 19 20  1  0
 20 21  1  0
 21 22  1  0
 22 23  1  0
 23 24  1  0
 24 25  1  0
 25 26  1  0
 26 27  1  0
 27 28  1  0
 19 29  1  0
 29 30  2  0
 29 31  1  0
 31 32  2  0
 32 33  1  0
 33 34  2  0
 34 35  1  0
 34 36  1  0
 36 37  2  0
 17  2  1  0
 26 22  1  0
 37 31  1  0
 14  5  1  0
 37 17  1  0
 14  9  1  0
 28 24  1  0
  1 38  1  0
  1 39  1  0
  1 40  1  0
  2 41  1  6
  3 42  1  0
  3 43  1  0
  6 44  1  0
  8 45  1  0
 10 46  1  0
 11 47  1  0
 12 48  1  0
 13 49  1  0
 18 50  1  0
 18 51  1  0
 20 52  1  0
 20 53  1  0
 21 54  1  0
 21 55  1  0
 22 56  1  1
 23 57  1  0
 23 58  1  0
 24 59  1  6
 25 60  1  0
 25 61  1  0
 26 62  1  6
 27 63  1  0
 27 64  1  0
 32 65  1  0
 33 66  1  0
 36 67  1  0
M  CHG  1  22   1
M  END
>  <RMSD>  (63) 
0.18020021279290663

$$$$

     RDKit          3D

 67 71  0  0  0  0  0  0  0  0999 V2000
    5.6100    4.0448   25.1214 O   0  0  0  0  0  0  0  0  0  0  0  0
    6.0245    3.0863   24.5046 C   0  0  0  0  0  0  0  0  0  0  0  0
    6.6422    1.8570   25.2047 C   0  0  0  0  0  0  0  0  0  0  0  0
    7.5767    1.1233   24.2922 N   0  0  1  0  0  0  0  0  0  0  0  0
    9.0353    1.3369   24.6019 C   0  0  0  0  0  0  0  0  0  0  0  0
    9.9625    0.4137   23.8474 C   0  0  0  0  0  0  0  0  0  0  0  0
   11.3350    0.6610   23.8950 C   0  0  0  0  0  0  0  0  0  0  0  0
   12.2428   -0.1963   23.2869 C   0  0  0  0  0  0  0  0  0  0  0  0
   11.7589   -1.3171   22.6159 C   0  0  0  0  0  0  0  0  0  0  0  0
   12.8733   -2.4459   21.8926 Cl  0  0  0  0  0  0  0  0  0  0  0  0
   10.3941   -1.5459   22.5127 C   0  0  0  0  0  0  0  0  0  0  0  0
    9.4884   -0.6694   23.1084 C   0  0  0  0  0  0  0  0  0  0  0  0
    8.0080   -0.8571   22.8808 C   0  0  2  0  0  0  0  0  0  0  0  0
    7.5393   -0.1354   21.6079 C   0  0  0  0  0  0  0  0  0  0  0  0
    8.0033    0.9254   21.2283 O   0  0  0  0  0  0  0  0  0  0  0  0
    6.4701   -0.7215   20.9650 N   0  0  0  0  0  0  0  0  0  0  0  0
    5.8374   -0.1136   19.8409 C   0  0  0  0  0  0  0  0  0  0  0  0
    6.2566   -0.4071   18.5699 C   0  0  0  0  0  0  0  0  0  0  0  0
    5.7281    0.1260   17.4411 N   0  0  0  0  0  0  0  0  0  0  0  0
    4.7564    0.9986   17.5759 C   0  0  0  0  0  0  0  0  0  0  0  0
    4.2079    1.3869   18.8344 C   0  0  0  0  0  0  0  0  0  0  0  0
    3.1588    2.3408   18.9525 C   0  0  0  0  0  0  0  0  0  0  0  0
    2.6352    2.6513   20.1818 C   0  0  0  0  0  0  0  0  0  0  0  0
    3.1159    2.0023   21.3405 C   0  0  0  0  0  0  0  0  0  0  0  0
    4.1179    1.0634   21.2425 C   0  0  0  0  0  0  0  0  0  0  0  0
    4.7292    0.7754   19.9963 C   0  0  0  0  0  0  0  0  0  0  0  0
    7.2185   -0.3192   24.0753 C   0  0  0  0  0  0  0  0  0  0  0  0
    6.0645    2.9942   23.1313 N   0  0  0  0  0  0  0  0  0  0  0  0
    6.5268    4.0485   22.2457 C   0  0  0  0  0  0  0  0  0  0  0  0
    7.9181    4.5993   22.6375 C   0  0  0  0  0  0  0  0  0  0  0  0
    7.8885    5.5767   23.7944 C   0  0  0  0  0  0  0  0  0  0  0  0
    8.4761    5.3150   25.0367 C   0  0  0  0  0  0  0  0  0  0  0  0
    8.3930    6.2525   26.0639 C   0  0  0  0  0  0  0  0  0  0  0  0
    7.7368    7.4645   25.8732 C   0  0  0  0  0  0  0  0  0  0  0  0
    7.6716    8.4814   26.9702 C   0  0  0  0  0  0  0  0  0  0  0  0
    6.3737    8.8114   27.2377 F   0  0  0  0  0  0  0  0  0  0  0  0
    8.2941    9.6335   26.5815 F   0  0  0  0  0  0  0  0  0  0  0  0
    7.1525    7.7317   24.6383 C   0  0  0  0  0  0  0  0  0  0  0  0
    7.2240    6.7914   23.6203 C   0  0  0  0  0  0  0  0  0  0  0  0
    5.8673    1.1781   25.5685 H   0  0  0  0  0  0  0  0  0  0  0  0
    7.1847    2.2112   26.0812 H   0  0  0  0  0  0  0  0  0  0  0  0
    7.4660    1.5927   23.3734 H   0  0  0  0  0  0  0  0  0  0  0  0
    9.2979    2.3721   24.3531 H   0  0  0  0  0  0  0  0  0  0  0  0
    9.2052    1.2579   25.6782 H   0  0  0  0  0  0  0  0  0  0  0  0
   11.6997    1.5442   24.4174 H   0  0  0  0  0  0  0  0  0  0  0  0
   13.3131   -0.0167   23.3440 H   0  0  0  0  0  0  0  0  0  0  0  0
   10.0202   -2.4092   21.9692 H   0  0  0  0  0  0  0  0  0  0  0  0
    7.7827   -1.9180   22.7382 H   0  0  0  0  0  0  0  0  0  0  0  0
    5.9985   -1.5084   21.3899 H   0  0  0  0  0  0  0  0  0  0  0  0
    7.0472   -1.1414   18.4314 H   0  0  0  0  0  0  0  0  0  0  0  0
    4.3552    1.4278   16.6568 H   0  0  0  0  0  0  0  0  0  0  0  0
    2.7914    2.8079   18.0424 H   0  0  0  0  0  0  0  0  0  0  0  0
    1.8473    3.3959   20.2733 H   0  0  0  0  0  0  0  0  0  0  0  0
    2.7264    2.2662   22.3213 H   0  0  0  0  0  0  0  0  0  0  0  0
    4.4730    0.5490   22.1272 H   0  0  0  0  0  0  0  0  0  0  0  0
    6.1442   -0.3931   23.8936 H   0  0  0  0  0  0  0  0  0  0  0  0
    7.4360   -0.8785   24.9854 H   0  0  0  0  0  0  0  0  0  0  0  0
    5.8957    2.1175   22.6735 H   0  0  0  0  0  0  0  0  0  0  0  0
    5.7618    4.8265   22.2195 H   0  0  0  0  0  0  0  0  0  0  0  0
    6.5869    3.5838   21.2575 H   0  0  0  0  0  0  0  0  0  0  0  0
    8.3617    5.0871   21.7574 H   0  0  0  0  0  0  0  0  0  0  0  0
    8.5709    3.7483   22.8769 H   0  0  0  0  0  0  0  0  0  0  0  0
    8.9665    4.3584   25.2242 H   0  0  0  0  0  0  0  0  0  0  0  0
    8.8411    6.0440   27.0341 H   0  0  0  0  0  0  0  0  0  0  0  0
    8.1385    8.1326   27.8994 H   0  0  0  0  0  0  0  0  0  0  0  0
    6.6496    8.6794   24.4750 H   0  0  0  0  0  0  0  0  0  0  0  0
    6.7582    7.0006   22.6587 H   0  0  0  0  0  0  0  0  0  0  0  0
  1  2  2  0
  2  3  1  0
  3  4  1  0
  4  5  1  0
  5  6  1  0
  6  7  2  0
  7  8  1  0
  8  9  2  0
  9 10  1  0
  9 11  1  0
 11 12  2  0
 12 13  1  0
 13 14  1  0
 14 15  2  0
 14 16  1  0
 16 17  1  0
 17 18  2  0
 18 19  1  0
 19 20  2  0
 20 21  1  0
 21 22  2  0
 22 23  1  0
 23 24  2  0
 24 25  1  0
 25 26  2  0
 13 27  1  0
  2 28  1  0
 28 29  1  0
 29 30  1  0
 30 31  1  0
 31 32  2  0
 32 33  1  0
 33 34  2  0
 34 35  1  0
 35 36  1  0
 35 37  1  0
 34 38  1  0
 38 39  2  0
 27  4  1  0
 39 31  1  0
 12  6  1  0
 26 17  1  0
 26 21  1  0
  3 40  1  0
  3 41  1  0
  4 42  1  6
  5 43  1  0
  5 44  1  0
  7 45  1  0
  8 46  1  0
 11 47  1  0
 13 48  1  6
 16 49  1  0
 18 50  1  0
 20 51  1  0
 22 52  1  0
 23 53  1  0
 24 54  1  0
 25 55  1  0
 27 56  1  0
 27 57  1  0
 28 58  1  0
 29 59  1  0
 29 60  1  0
 30 61  1  0
 30 62  1  0
 32 63  1  0
 33 64  1  0
 35 65  1  0
 38 66  1  0
 39 67  1  0
M  CHG  1   4   1
M  END
>  <RMSD>  (64) 
0.059353400011087236

$$$$

     RDKit          3D

 60 65  0  0  0  0  0  0  0  0999 V2000
    6.1979    4.2371   21.9475 C   0  0  0  0  0  0  0  0  0  0  0  0
    6.8039    3.3484   22.9209 N   0  0  0  0  0  0  0  0  0  0  0  0
    6.2993    3.2390   24.1703 C   0  0  0  0  0  0  0  0  0  0  0  0
    5.4490    3.9976   24.6125 O   0  0  0  0  0  0  0  0  0  0  0  0
    6.7970    2.0960   25.0387 C   0  0  0  0  0  0  0  0  0  0  0  0
    7.6901    1.1205   24.4632 N   0  0  0  0  0  0  0  0  0  0  0  0
    7.1830   -0.1941   24.1009 C   0  0  0  0  0  0  0  0  0  0  0  0
    7.9193   -0.7877   22.8672 C   0  0  2  0  0  0  0  0  0  0  0  0
    7.5646    0.0348   21.6022 C   0  0  0  0  0  0  0  0  0  0  0  0
    8.0527    1.0853   21.2351 O   0  0  0  0  0  0  0  0  0  0  0  0
    6.5536   -0.6263   20.9385 N   0  0  0  0  0  0  0  0  0  0  0  0
    5.8870   -0.0475   19.8257 C   0  0  0  0  0  0  0  0  0  0  0  0
    6.3046   -0.3480   18.5557 C   0  0  0  0  0  0  0  0  0  0  0  0
    5.7571    0.1623   17.4244 N   0  0  0  0  0  0  0  0  0  0  0  0
    4.7587    1.0036   17.5665 C   0  0  0  0  0  0  0  0  0  0  0  0
    4.2010    1.3820   18.8231 C   0  0  0  0  0  0  0  0  0  0  0  0
    3.1215    2.3038   18.9405 C   0  0  0  0  0  0  0  0  0  0  0  0
    2.6122    2.6202   20.1706 C   0  0  0  0  0  0  0  0  0  0  0  0
    3.1410    2.0322   21.3448 C   0  0  0  0  0  0  0  0  0  0  0  0
    4.1937    1.1546   21.2581 C   0  0  0  0  0  0  0  0  0  0  0  0
    4.7645    0.8209   19.9975 C   0  0  0  0  0  0  0  0  0  0  0  0
    6.1371   -1.8560   21.5909 C   0  0  0  0  0  0  0  0  0  0  0  0
    7.3474   -2.1768   22.4753 C   0  0  2  0  0  0  0  0  0  0  0  0
    7.0599   -3.1417   23.6177 C   0  0  0  0  0  0  0  0  0  0  0  0
    9.4055   -0.7435   23.1508 C   0  0  0  0  0  0  0  0  0  0  0  0
   10.3009   -1.6905   22.6313 C   0  0  0  0  0  0  0  0  0  0  0  0
   11.6649   -1.5164   22.7874 C   0  0  0  0  0  0  0  0  0  0  0  0
   12.7521   -2.6715   22.0648 Cl  0  0  0  0  0  0  0  0  0  0  0  0
   12.1863   -0.4201   23.4783 C   0  0  0  0  0  0  0  0  0  0  0  0
   11.3053    0.5088   24.0032 C   0  0  0  0  0  0  0  0  0  0  0  0
    9.9251    0.3614   23.8453 C   0  0  0  0  0  0  0  0  0  0  0  0
    9.0254    1.4363   24.3858 C   0  0  0  0  0  0  0  0  0  0  0  0
    9.4329    2.5359   24.7286 O   0  0  0  0  0  0  0  0  0  0  0  0
    5.7862    1.6147   26.0672 C   0  0  0  0  0  0  0  0  0  0  0  0
    6.9405    2.4385   26.5100 C   0  0  0  0  0  0  0  0  0  0  0  0
    5.1570    3.9503   21.7549 H   0  0  0  0  0  0  0  0  0  0  0  0
    6.7530    4.1380   21.0115 H   0  0  0  0  0  0  0  0  0  0  0  0
    6.2083    5.2855   22.2674 H   0  0  0  0  0  0  0  0  0  0  0  0
    7.6603    2.8836   22.6601 H   0  0  0  0  0  0  0  0  0  0  0  0
    6.1173   -0.0838   23.8881 H   0  0  0  0  0  0  0  0  0  0  0  0
    7.2900   -0.8910   24.9468 H   0  0  0  0  0  0  0  0  0  0  0  0
    7.1382   -1.0313   18.4100 H   0  0  0  0  0  0  0  0  0  0  0  0
    4.3344    1.4308   16.6558 H   0  0  0  0  0  0  0  0  0  0  0  0
    2.7210    2.7581   18.0348 H   0  0  0  0  0  0  0  0  0  0  0  0
    1.7987    3.3350   20.2634 H   0  0  0  0  0  0  0  0  0  0  0  0
    2.7398    2.3010   22.3196 H   0  0  0  0  0  0  0  0  0  0  0  0
    4.6098    0.7162   22.1619 H   0  0  0  0  0  0  0  0  0  0  0  0
    5.9371   -2.6345   20.8491 H   0  0  0  0  0  0  0  0  0  0  0  0
    5.2253   -1.7412   22.2074 H   0  0  0  0  0  0  0  0  0  0  0  0
    8.0776   -2.6442   21.8121 H   0  0  0  0  0  0  0  0  0  0  0  0
    7.9244   -3.2458   24.2826 H   0  0  0  0  0  0  0  0  0  0  0  0
    6.8005   -4.1392   23.2462 H   0  0  0  0  0  0  0  0  0  0  0  0
    6.2257   -2.7875   24.2326 H   0  0  0  0  0  0  0  0  0  0  0  0
    9.9494   -2.5713   22.1025 H   0  0  0  0  0  0  0  0  0  0  0  0
   13.2640   -0.3014   23.5733 H   0  0  0  0  0  0  0  0  0  0  0  0
   11.6792    1.3772   24.5355 H   0  0  0  0  0  0  0  0  0  0  0  0
    4.8094    2.0846   26.0693 H   0  0  0  0  0  0  0  0  0  0  0  0
    5.7940    0.5595   26.3222 H   0  0  0  0  0  0  0  0  0  0  0  0
    7.7320    1.9353   27.0549 H   0  0  0  0  0  0  0  0  0  0  0  0
    6.7287    3.4579   26.8179 H   0  0  0  0  0  0  0  0  0  0  0  0
  1  2  1  0
  2  3  1  0
  3  4  2  0
  3  5  1  0
  5  6  1  0
  6  7  1  0
  8  7  1  1
  8  9  1  0
  9 10  2  0
  9 11  1  0
 11 12  1  0
 12 13  2  0
 13 14  1  0
 14 15  2  0
 15 16  1  0
 16 17  2  0
 17 18  1  0
 18 19  2  0
 19 20  1  0
 20 21  2  0
 11 22  1  0
 22 23  1  0
 23 24  1  0
  8 25  1  0
 25 26  2  0
 26 27  1  0
 27 28  1  0
 27 29  2  0
 29 30  1  0
 30 31  2  0
 31 32  1  0
 32 33  2  0
  5 34  1  0
 34 35  1  0
 35  5  1  0
 32  6  1  0
 23  8  1  0
 31 25  1  0
 21 12  1  0
 21 16  1  0
  1 36  1  0
  1 37  1  0
  1 38  1  0
  2 39  1  0
  7 40  1  0
  7 41  1  0
 13 42  1  0
 15 43  1  0
 17 44  1  0
 18 45  1  0
 19 46  1  0
 20 47  1  0
 22 48  1  0
 22 49  1  0
 23 50  1  6
 24 51  1  0
 24 52  1  0
 24 53  1  0
 26 54  1  0
 29 55  1  0
 30 56  1  0
 34 57  1  0
 34 58  1  0
 35 59  1  0
 35 60  1  0
M  END
>  <RMSD>  (65) 
0.16193641684658702

$$$$

     RDKit          3D

 57 62  0  0  0  0  0  0  0  0999 V2000
    7.0639   -3.2919   23.5020 C   0  0  0  0  0  0  0  0  0  0  0  0
    7.3527   -2.2864   22.3949 C   0  0  1  0  0  0  0  0  0  0  0  0
    6.1366   -1.9325   21.5280 C   0  0  0  0  0  0  0  0  0  0  0  0
    6.5282   -0.6673   20.9371 N   0  0  0  0  0  0  0  0  0  0  0  0
    5.8809   -0.0598   19.8289 C   0  0  0  0  0  0  0  0  0  0  0  0
    6.3055   -0.3466   18.5561 C   0  0  0  0  0  0  0  0  0  0  0  0
    5.7659    0.1740   17.4263 N   0  0  0  0  0  0  0  0  0  0  0  0
    4.7634    1.0121   17.5689 C   0  0  0  0  0  0  0  0  0  0  0  0
    4.2043    1.3841   18.8258 C   0  0  0  0  0  0  0  0  0  0  0  0
    3.1185    2.2992   18.9421 C   0  0  0  0  0  0  0  0  0  0  0  0
    2.6067    2.6185   20.1708 C   0  0  0  0  0  0  0  0  0  0  0  0
    3.1465    2.0416   21.3435 C   0  0  0  0  0  0  0  0  0  0  0  0
    4.2080    1.1727   21.2601 C   0  0  0  0  0  0  0  0  0  0  0  0
    4.7683    0.8248   20.0009 C   0  0  0  0  0  0  0  0  0  0  0  0
    7.5457   -0.0303   21.6200 C   0  0  0  0  0  0  0  0  0  0  0  0
    8.0285    1.0248   21.2829 O   0  0  0  0  0  0  0  0  0  0  0  0
    7.9228   -0.9113   22.8417 C   0  0  1  0  0  0  0  0  0  0  0  0
    7.2099   -0.3823   24.1164 C   0  0  0  0  0  0  0  0  0  0  0  0
    7.6824    0.9365   24.5020 N   0  0  0  0  0  0  0  0  0  0  0  0
    6.7540    1.8281   25.1682 C   0  0  0  0  0  0  0  0  0  0  0  0
    6.1029    2.8067   24.2344 C   0  0  0  0  0  0  0  0  0  0  0  0
    4.9167    3.4107   24.4815 N   0  0  0  0  0  0  0  0  0  0  0  0
    4.6850    4.1895   23.4583 N   0  0  0  0  0  0  0  0  0  0  0  0
    5.7104    4.0576   22.6514 N   0  0  0  0  0  0  0  0  0  0  0  0
    5.7815    4.6914   21.3584 C   0  0  0  0  0  0  0  0  0  0  0  0
    6.6165    3.1936   23.0728 N   0  0  0  0  0  0  0  0  0  0  0  0
    9.0077    1.2820   24.4406 C   0  0  0  0  0  0  0  0  0  0  0  0
    9.4184    2.3509   24.8684 O   0  0  0  0  0  0  0  0  0  0  0  0
    9.9199    0.2523   23.8263 C   0  0  0  0  0  0  0  0  0  0  0  0
   11.2975    0.4254   23.9767 C   0  0  0  0  0  0  0  0  0  0  0  0
   12.1915   -0.4812   23.4380 C   0  0  0  0  0  0  0  0  0  0  0  0
   11.6688   -1.5733   22.7508 C   0  0  0  0  0  0  0  0  0  0  0  0
   12.5189   -2.4619   22.2079 F   0  0  0  0  0  0  0  0  0  0  0  0
   10.3132   -1.7758   22.5823 C   0  0  0  0  0  0  0  0  0  0  0  0
    9.4104   -0.8478   23.1144 C   0  0  0  0  0  0  0  0  0  0  0  0
    6.7833   -4.2694   23.0960 H   0  0  0  0  0  0  0  0  0  0  0  0
    7.9334   -3.4377   24.1513 H   0  0  0  0  0  0  0  0  0  0  0  0
    6.2428   -2.9518   24.1404 H   0  0  0  0  0  0  0  0  0  0  0  0
    8.0807   -2.7329   21.7135 H   0  0  0  0  0  0  0  0  0  0  0  0
    5.2267   -1.8565   22.1493 H   0  0  0  0  0  0  0  0  0  0  0  0
    5.9420   -2.6747   20.7496 H   0  0  0  0  0  0  0  0  0  0  0  0
    7.1399   -1.0278   18.4065 H   0  0  0  0  0  0  0  0  0  0  0  0
    4.3364    1.4397   16.6599 H   0  0  0  0  0  0  0  0  0  0  0  0
    2.7094    2.7428   18.0364 H   0  0  0  0  0  0  0  0  0  0  0  0
    1.7822    3.3239   20.2536 H   0  0  0  0  0  0  0  0  0  0  0  0
    2.7399    2.3060   22.3156 H   0  0  0  0  0  0  0  0  0  0  0  0
    4.6326    0.7298   22.1588 H   0  0  0  0  0  0  0  0  0  0  0  0
    7.3703   -1.0845   24.9488 H   0  0  0  0  0  0  0  0  0  0  0  0
    6.1320   -0.3131   23.9309 H   0  0  0  0  0  0  0  0  0  0  0  0
    7.3012    2.3564   25.9556 H   0  0  0  0  0  0  0  0  0  0  0  0
    5.9813    1.2296   25.6653 H   0  0  0  0  0  0  0  0  0  0  0  0
    5.1128    5.5479   21.3591 H   0  0  0  0  0  0  0  0  0  0  0  0
    6.8031    5.0268   21.1904 H   0  0  0  0  0  0  0  0  0  0  0  0
    5.4679    3.9801   20.5898 H   0  0  0  0  0  0  0  0  0  0  0  0
   11.6558    1.2877   24.5275 H   0  0  0  0  0  0  0  0  0  0  0  0
   13.2692   -0.3597   23.5242 H   0  0  0  0  0  0  0  0  0  0  0  0
    9.9824   -2.6570   22.0405 H   0  0  0  0  0  0  0  0  0  0  0  0
  1  2  1  0
  2  3  1  0
  3  4  1  0
  4  5  1  0
  5  6  2  0
  6  7  1  0
  7  8  2  0
  8  9  1  0
  9 10  2  0
 10 11  1  0
 11 12  2  0
 12 13  1  0
 13 14  2  0
  4 15  1  0
 15 16  2  0
 15 17  1  0
 17 18  1  1
 18 19  1  0
 19 20  1  0
 20 21  1  0
 21 22  1  0
 22 23  2  0
 23 24  1  0
 24 25  1  0
 24 26  1  0
 19 27  1  0
 27 28  2  0
 27 29  1  0
 29 30  2  0
 30 31  1  0
 31 32  2  0
 32 33  1  0
 32 34  1  0
 34 35  2  0
 17  2  1  0
 26 21  2  0
 35 29  1  0
 14  5  1  0
 35 17  1  0
 14  9  1  0
  1 36  1  0
  1 37  1  0
  1 38  1  0
  2 39  1  6
  3 40  1  0
  3 41  1  0
  6 42  1  0
  8 43  1  0
 10 44  1  0
 11 45  1  0
 12 46  1  0
 13 47  1  0
 18 48  1  0
 18 49  1  0
 20 50  1  0
 20 51  1  0
 25 52  1  0
 25 53  1  0
 25 54  1  0
 30 55  1  0
 31 56  1  0
 34 57  1  0
M  END
>  <RMSD>  (66) 
0.17383548570678103

$$$$

     RDKit          3D

 69 74  0  0  0  0  0  0  0  0999 V2000
    4.3783    6.7119   20.8845 C   0  0  0  0  0  0  0  0  0  0  0  0
    4.8727    6.0586   22.1488 C   0  0  1  0  0  0  0  0  0  0  0  0
    5.7393    4.8255   21.9158 C   0  0  0  0  0  0  0  0  0  0  0  0
    6.1602    4.2578   23.2455 N   0  0  1  0  0  0  0  0  0  0  0  0
    6.9998    3.0318   23.1309 C   0  0  0  0  0  0  0  0  0  0  0  0
    7.0556    2.2665   24.4649 C   0  0  0  0  0  0  0  0  0  0  0  0
    7.8261    1.0416   24.3495 N   0  0  0  0  0  0  0  0  0  0  0  0
    7.2133   -0.2088   23.9307 C   0  0  0  0  0  0  0  0  0  0  0  0
    7.9758   -0.8669   22.7399 C   0  0  2  0  0  0  0  0  0  0  0  0
    7.6547   -0.1289   21.4201 C   0  0  0  0  0  0  0  0  0  0  0  0
    8.2667    0.7807   20.8940 O   0  0  0  0  0  0  0  0  0  0  0  0
    6.5019   -0.6893   20.9136 N   0  0  0  0  0  0  0  0  0  0  0  0
    5.8503   -0.0960   19.8093 C   0  0  0  0  0  0  0  0  0  0  0  0
    6.3149   -0.3386   18.5403 C   0  0  0  0  0  0  0  0  0  0  0  0
    5.7824    0.1963   17.4155 N   0  0  0  0  0  0  0  0  0  0  0  0
    4.7653    1.0140   17.5745 C   0  0  0  0  0  0  0  0  0  0  0  0
    4.2039    1.3718   18.8345 C   0  0  0  0  0  0  0  0  0  0  0  0
    3.1229    2.2887   18.9413 C   0  0  0  0  0  0  0  0  0  0  0  0
    2.6185    2.6212   20.1709 C   0  0  0  0  0  0  0  0  0  0  0  0
    3.1589    2.0576   21.3464 C   0  0  0  0  0  0  0  0  0  0  0  0
    4.2080    1.1703   21.2698 C   0  0  0  0  0  0  0  0  0  0  0  0
    4.7538    0.7978   20.0043 C   0  0  0  0  0  0  0  0  0  0  0  0
    6.1235   -1.9374   21.5578 C   0  0  0  0  0  0  0  0  0  0  0  0
    7.3807   -2.2648   22.3739 C   0  0  2  0  0  0  0  0  0  0  0  0
    7.1683   -3.2598   23.5019 C   0  0  0  0  0  0  0  0  0  0  0  0
    9.4557   -0.8244   23.0342 C   0  0  0  0  0  0  0  0  0  0  0  0
   10.3388   -1.5758   22.2508 C   0  0  0  0  0  0  0  0  0  0  0  0
   11.6994   -1.4879   22.4698 C   0  0  0  0  0  0  0  0  0  0  0  0
   12.7639   -2.3981   21.4436 Cl  0  0  0  0  0  0  0  0  0  0  0  0
   12.2296   -0.7029   23.4906 C   0  0  0  0  0  0  0  0  0  0  0  0
   11.3647    0.0541   24.2542 C   0  0  0  0  0  0  0  0  0  0  0  0
    9.9962    0.0413   23.9958 C   0  0  0  0  0  0  0  0  0  0  0  0
    9.1507    1.0656   24.6943 C   0  0  0  0  0  0  0  0  0  0  0  0
    9.6333    1.8947   25.4539 O   0  0  0  0  0  0  0  0  0  0  0  0
    6.8240    5.3379   24.0706 C   0  0  0  0  0  0  0  0  0  0  0  0
    5.9395    6.5724   24.1446 C   0  0  0  0  0  0  0  0  0  0  0  0
    5.6190    7.0388   22.8561 O   0  0  0  0  0  0  0  0  0  0  0  0
    3.6582    6.0779   20.3544 H   0  0  0  0  0  0  0  0  0  0  0  0
    3.8863    7.6563   21.1254 H   0  0  0  0  0  0  0  0  0  0  0  0
    5.2322    6.9284   20.2358 H   0  0  0  0  0  0  0  0  0  0  0  0
    4.0181    5.7473   22.7682 H   0  0  0  0  0  0  0  0  0  0  0  0
    5.2093    4.0512   21.3476 H   0  0  0  0  0  0  0  0  0  0  0  0
    6.6330    5.1154   21.3522 H   0  0  0  0  0  0  0  0  0  0  0  0
    5.2877    3.9603   23.7303 H   0  0  0  0  0  0  0  0  0  0  0  0
    8.0044    3.3226   22.7941 H   0  0  0  0  0  0  0  0  0  0  0  0
    6.5708    2.4033   22.3409 H   0  0  0  0  0  0  0  0  0  0  0  0
    6.0323    2.0162   24.7762 H   0  0  0  0  0  0  0  0  0  0  0  0
    7.5133    2.8722   25.2565 H   0  0  0  0  0  0  0  0  0  0  0  0
    6.1666   -0.0124   23.6711 H   0  0  0  0  0  0  0  0  0  0  0  0
    7.2189   -0.9114   24.7782 H   0  0  0  0  0  0  0  0  0  0  0  0
    7.1727   -0.9948   18.4092 H   0  0  0  0  0  0  0  0  0  0  0  0
    4.3256    1.4458   16.6765 H   0  0  0  0  0  0  0  0  0  0  0  0
    2.7068    2.7133   18.0318 H   0  0  0  0  0  0  0  0  0  0  0  0
    1.7909    3.3198   20.2483 H   0  0  0  0  0  0  0  0  0  0  0  0
    2.7450    2.3290   22.3154 H   0  0  0  0  0  0  0  0  0  0  0  0
    4.6148    0.7608   22.1897 H   0  0  0  0  0  0  0  0  0  0  0  0
    5.2340   -1.8300   22.2006 H   0  0  0  0  0  0  0  0  0  0  0  0
    5.9101   -2.7162   20.8173 H   0  0  0  0  0  0  0  0  0  0  0  0
    8.0697   -2.7234   21.6563 H   0  0  0  0  0  0  0  0  0  0  0  0
    8.0868   -3.3941   24.0830 H   0  0  0  0  0  0  0  0  0  0  0  0
    6.8782   -4.2321   23.0878 H   0  0  0  0  0  0  0  0  0  0  0  0
    6.3751   -2.9306   24.1820 H   0  0  0  0  0  0  0  0  0  0  0  0
    9.9837   -2.2078   21.4446 H   0  0  0  0  0  0  0  0  0  0  0  0
   13.3016   -0.6492   23.6408 H   0  0  0  0  0  0  0  0  0  0  0  0
   11.7315    0.7036   25.0400 H   0  0  0  0  0  0  0  0  0  0  0  0
    7.0134    4.9573   25.0745 H   0  0  0  0  0  0  0  0  0  0  0  0
    7.7826    5.5998   23.6043 H   0  0  0  0  0  0  0  0  0  0  0  0
    5.0057    6.3445   24.6892 H   0  0  0  0  0  0  0  0  0  0  0  0
    6.4602    7.3766   24.6735 H   0  0  0  0  0  0  0  0  0  0  0  0
  1  2  1  0
  2  3  1  0
  3  4  1  0
  4  5  1  0
  5  6  1  0
  6  7  1  0
  7  8  1  0
  9  8  1  1
  9 10  1  0
 10 11  2  0
 10 12  1  0
 12 13  1  0
 13 14  2  0
 14 15  1  0
 15 16  2  0
 16 17  1  0
 17 18  2  0
 18 19  1  0
 19 20  2  0
 20 21  1  0
 21 22  2  0
 12 23  1  0
 23 24  1  0
 24 25  1  0
  9 26  1  0
 26 27  2  0
 27 28  1  0
 28 29  1  0
 28 30  2  0
 30 31  1  0
 31 32  2  0
 32 33  1  0
 33 34  2  0
  4 35  1  0
 35 36  1  0
 36 37  1  0
 37  2  1  0
 33  7  1  0
 24  9  1  0
 32 26  1  0
 22 13  1  0
 22 17  1  0
  1 38  1  0
  1 39  1  0
  1 40  1  0
  2 41  1  1
  3 42  1  0
  3 43  1  0
  4 44  1  1
  5 45  1  0
  5 46  1  0
  6 47  1  0
  6 48  1  0
  8 49  1  0
  8 50  1  0
 14 51  1  0
 16 52  1  0
 18 53  1  0
 19 54  1  0
 20 55  1  0
 21 56  1  0
 23 57  1  0
 23 58  1  0
 24 59  1  6
 25 60  1  0
 25 61  1  0
 25 62  1  0
 27 63  1  0
 30 64  1  0
 31 65  1  0
 35 66  1  0
 35 67  1  0
 36 68  1  0
 36 69  1  0
M  CHG  1   4   1
M  END
>  <RMSD>  (67) 
0.18563723403745022

$$$$

     RDKit          3D

 40 42  0  0  0  0  0  0  0  0999 V2000
    9.3917    2.2204   25.0733 C   0  0  0  0  0  0  0  0  0  0  0  0
    8.7827    1.2495   24.0768 C   0  0  0  0  0  0  0  0  0  0  0  0
    9.9095    0.3623   23.5004 C   0  0  0  0  0  0  0  0  0  0  0  0
    9.3949   -1.0170   23.0546 C   0  0  0  0  0  0  0  0  0  0  0  0
    7.9817   -0.9697   22.7097 N   0  0  0  0  0  0  0  0  0  0  0  0
    7.6810   -0.5922   21.4209 C   0  0  0  0  0  0  0  0  0  0  0  0
    8.4971   -0.0511   20.6978 O   0  0  0  0  0  0  0  0  0  0  0  0
    6.2998   -1.0191   20.9481 C   0  0  0  0  0  0  0  0  0  0  0  0
    5.7443   -0.2185   19.8176 C   0  0  0  0  0  0  0  0  0  0  0  0
    6.2256   -0.4335   18.5513 C   0  0  0  0  0  0  0  0  0  0  0  0
    5.7698    0.1659   17.4246 N   0  0  0  0  0  0  0  0  0  0  0  0
    4.7874    1.0268   17.5792 C   0  0  0  0  0  0  0  0  0  0  0  0
    4.1989    1.3603   18.8342 C   0  0  0  0  0  0  0  0  0  0  0  0
    3.1434    2.3013   18.9499 C   0  0  0  0  0  0  0  0  0  0  0  0
    2.6242    2.6261   20.1760 C   0  0  0  0  0  0  0  0  0  0  0  0
    3.1348    2.0233   21.3467 C   0  0  0  0  0  0  0  0  0  0  0  0
    4.1463    1.0959   21.2604 C   0  0  0  0  0  0  0  0  0  0  0  0
    4.7024    0.7349   20.0005 C   0  0  0  0  0  0  0  0  0  0  0  0
    7.1114   -0.6746   23.8449 C   0  0  0  0  0  0  0  0  0  0  0  0
    7.7780    0.3382   24.7931 C   0  0  0  0  0  0  0  0  0  0  0  0
    9.8794    1.6092   25.8383 H   0  0  0  0  0  0  0  0  0  0  0  0
    8.6555    2.8528   25.5754 H   0  0  0  0  0  0  0  0  0  0  0  0
   10.1379    2.8778   24.6172 H   0  0  0  0  0  0  0  0  0  0  0  0
    8.2840    1.8308   23.2801 H   0  0  0  0  0  0  0  0  0  0  0  0
   10.6932    0.2247   24.2642 H   0  0  0  0  0  0  0  0  0  0  0  0
   10.3763    0.8709   22.6523 H   0  0  0  0  0  0  0  0  0  0  0  0
    9.9537   -1.3777   22.1878 H   0  0  0  0  0  0  0  0  0  0  0  0
    9.4931   -1.7552   23.8626 H   0  0  0  0  0  0  0  0  0  0  0  0
    6.4167   -2.0671   20.6277 H   0  0  0  0  0  0  0  0  0  0  0  0
    5.6285   -1.0251   21.8032 H   0  0  0  0  0  0  0  0  0  0  0  0
    7.0439   -1.1375   18.4126 H   0  0  0  0  0  0  0  0  0  0  0  0
    4.4187    1.5124   16.6761 H   0  0  0  0  0  0  0  0  0  0  0  0
    2.7668    2.7703   18.0448 H   0  0  0  0  0  0  0  0  0  0  0  0
    1.8279    3.3619   20.2611 H   0  0  0  0  0  0  0  0  0  0  0  0
    2.7262    2.2964   22.3179 H   0  0  0  0  0  0  0  0  0  0  0  0
    4.5231    0.6432   22.1752 H   0  0  0  0  0  0  0  0  0  0  0  0
    6.1583   -0.2881   23.4702 H   0  0  0  0  0  0  0  0  0  0  0  0
    6.9047   -1.5964   24.3974 H   0  0  0  0  0  0  0  0  0  0  0  0
    8.3313   -0.2142   25.5710 H   0  0  0  0  0  0  0  0  0  0  0  0
    7.0167    0.9364   25.3093 H   0  0  0  0  0  0  0  0  0  0  0  0
  1  2  1  0
  2  3  1  0
  3  4  1  0
  4  5  1  0
  5  6  1  0
  6  7  2  0
  6  8  1  0
  8  9  1  0
  9 10  2  0
 10 11  1  0
 11 12  2  0
 12 13  1  0
 13 14  2  0
 14 15  1  0
 15 16  2  0
 16 17  1  0
 17 18  2  0
  5 19  1  0
 19 20  1  0
 20  2  1  0
 18  9  1  0
 18 13  1  0
  1 21  1  0
  1 22  1  0
  1 23  1  0
  2 24  1  0
  3 25  1  0
  3 26  1  0
  4 27  1  0
  4 28  1  0
  8 29  1  0
  8 30  1  0
 10 31  1  0
 12 32  1  0
 14 33  1  0
 15 34  1  0
 16 35  1  0
 17 36  1  0
 19 37  1  0
 19 38  1  0
 20 39  1  0
 20 40  1  0
M  END
>  <RMSD>  (68) 
0.04773493837148326

$$$$

     RDKit          3D

 41 43  0  0  0  0  0  0  0  0999 V2000
    8.2636    0.2799   21.0939 O   0  0  0  0  0  0  0  0  0  0  0  0
    7.5591   -0.5671   21.6165 C   0  0  0  0  0  0  0  0  0  0  0  0
    6.2500   -1.0449   20.9752 C   0  0  0  0  0  0  0  0  0  0  0  0
    5.7448   -0.2160   19.8309 C   0  0  0  0  0  0  0  0  0  0  0  0
    6.1796   -0.4756   18.5572 C   0  0  0  0  0  0  0  0  0  0  0  0
    5.7535    0.1565   17.4308 N   0  0  0  0  0  0  0  0  0  0  0  0
    4.8198    1.0648   17.5906 C   0  0  0  0  0  0  0  0  0  0  0  0
    4.2455    1.4178   18.8430 C   0  0  0  0  0  0  0  0  0  0  0  0
    3.1652    2.3316   18.9471 C   0  0  0  0  0  0  0  0  0  0  0  0
    2.5948    2.5906   20.1660 C   0  0  0  0  0  0  0  0  0  0  0  0
    3.1244    2.0016   21.3366 C   0  0  0  0  0  0  0  0  0  0  0  0
    4.2016    1.1518   21.2662 C   0  0  0  0  0  0  0  0  0  0  0  0
    4.7495    0.7896   20.0068 C   0  0  0  0  0  0  0  0  0  0  0  0
    7.9233   -1.1671   22.8078 N   0  0  0  0  0  0  0  0  0  0  0  0
    9.1713   -0.6939   23.4187 C   0  0  0  0  0  0  0  0  0  0  0  0
   10.4114   -1.1896   22.6696 C   0  0  0  0  0  0  0  0  0  0  0  0
   10.7729   -2.6241   23.0332 C   0  0  0  0  0  0  0  0  0  0  0  0
    9.5215   -3.9083   22.7305 S   0  0  0  0  0  0  0  0  0  0  0  0
    8.1870   -3.4387   23.8665 C   0  0  0  0  0  0  0  0  0  0  0  0
    7.2499   -2.3205   23.3723 C   0  0  1  0  0  0  0  0  0  0  0  0
    6.3191   -1.8775   24.5021 C   0  0  0  0  0  0  0  0  0  0  0  0
    5.5142   -2.8824   24.8891 F   0  0  0  0  0  0  0  0  0  0  0  0
    7.0134   -1.4799   25.5871 F   0  0  0  0  0  0  0  0  0  0  0  0
    5.5462   -0.8522   24.1124 F   0  0  0  0  0  0  0  0  0  0  0  0
    5.4774   -1.1410   21.7413 H   0  0  0  0  0  0  0  0  0  0  0  0
    6.4542   -2.0587   20.6017 H   0  0  0  0  0  0  0  0  0  0  0  0
    6.9207   -1.2578   18.3980 H   0  0  0  0  0  0  0  0  0  0  0  0
    4.4446    1.5509   16.6895 H   0  0  0  0  0  0  0  0  0  0  0  0
    2.8045    2.8172   18.0443 H   0  0  0  0  0  0  0  0  0  0  0  0
    1.7304    3.2429   20.2404 H   0  0  0  0  0  0  0  0  0  0  0  0
    2.6634    2.2040   22.2994 H   0  0  0  0  0  0  0  0  0  0  0  0
    4.6412    0.7592   22.1814 H   0  0  0  0  0  0  0  0  0  0  0  0
    9.1439    0.4015   23.4048 H   0  0  0  0  0  0  0  0  0  0  0  0
    9.2043   -1.0342   24.4612 H   0  0  0  0  0  0  0  0  0  0  0  0
   11.2755   -0.5749   22.9780 H   0  0  0  0  0  0  0  0  0  0  0  0
   10.2590   -1.0701   21.5929 H   0  0  0  0  0  0  0  0  0  0  0  0
   11.6674   -2.9146   22.4729 H   0  0  0  0  0  0  0  0  0  0  0  0
   11.0695   -2.5815   24.0808 H   0  0  0  0  0  0  0  0  0  0  0  0
    8.5763   -3.2024   24.8597 H   0  0  0  0  0  0  0  0  0  0  0  0
    7.6020   -4.3566   23.9580 H   0  0  0  0  0  0  0  0  0  0  0  0
    6.5997   -2.7546   22.6088 H   0  0  0  0  0  0  0  0  0  0  0  0
  1  2  2  0
  2  3  1  0
  3  4  1  0
  4  5  2  0
  5  6  1  0
  6  7  2  0
  7  8  1  0
  8  9  2  0
  9 10  1  0
 10 11  2  0
 11 12  1  0
 12 13  2  0
  2 14  1  0
 14 15  1  0
 15 16  1  0
 16 17  1  0
 17 18  1  0
 18 19  1  0
 19 20  1  0
 20 21  1  0
 21 22  1  0
 21 23  1  0
 21 24  1  0
 13  4  1  0
 20 14  1  0
 13  8  1  0
  3 25  1  0
  3 26  1  0
  5 27  1  0
  7 28  1  0
  9 29  1  0
 10 30  1  0
 11 31  1  0
 12 32  1  0
 15 33  1  0
 15 34  1  0
 16 35  1  0
 16 36  1  0
 17 37  1  0
 17 38  1  0
 19 39  1  0
 19 40  1  0
 20 41  1  6
M  END
>  <RMSD>  (69) 
0.07231373574584506

$$$$

     RDKit          3D

 48 51  0  0  0  0  0  0  0  0999 V2000
    6.2334   -6.0577   26.3669 N   0  0  0  0  0  0  0  0  0  0  0  0
    6.4090   -5.0535   25.8149 C   0  0  0  0  0  0  0  0  0  0  0  0
    6.6425   -3.8178   25.1113 C   0  0  0  0  0  0  0  0  0  0  0  0
    5.9892   -2.6392   25.4855 C   0  0  0  0  0  0  0  0  0  0  0  0
    6.2796   -1.4428   24.8380 C   0  0  0  0  0  0  0  0  0  0  0  0
    7.2105   -1.4077   23.7911 C   0  0  0  0  0  0  0  0  0  0  0  0
    7.5673   -0.1630   23.1750 N   0  0  0  0  0  0  0  0  0  0  0  0
    8.3482    0.8067   23.9450 C   0  0  0  0  0  0  0  0  0  0  0  0
    9.8554    0.7343   23.7275 C   0  0  0  0  0  0  0  0  0  0  0  0
   10.6589    1.8443   23.9971 C   0  0  0  0  0  0  0  0  0  0  0  0
   12.0349    1.7894   23.7878 C   0  0  0  0  0  0  0  0  0  0  0  0
   12.6360    0.6299   23.3098 C   0  0  0  0  0  0  0  0  0  0  0  0
   11.8386   -0.4833   23.0891 C   0  0  0  0  0  0  0  0  0  0  0  0
   12.5625   -1.9737   22.5431 Cl  0  0  0  0  0  0  0  0  0  0  0  0
   10.4685   -0.4451   23.3080 C   0  0  0  0  0  0  0  0  0  0  0  0
    7.3477    0.1368   21.8380 C   0  0  0  0  0  0  0  0  0  0  0  0
    7.8255    1.1280   21.3172 O   0  0  0  0  0  0  0  0  0  0  0  0
    6.4598   -0.8272   21.0294 C   0  0  0  0  0  0  0  0  0  0  0  0
    5.7924   -0.1760   19.8450 C   0  0  0  0  0  0  0  0  0  0  0  0
    6.2291   -0.4291   18.5707 C   0  0  0  0  0  0  0  0  0  0  0  0
    5.7476    0.1482   17.4339 N   0  0  0  0  0  0  0  0  0  0  0  0
    4.7771    1.0171   17.5807 C   0  0  0  0  0  0  0  0  0  0  0  0
    4.2034    1.3645   18.8357 C   0  0  0  0  0  0  0  0  0  0  0  0
    3.1529    2.3133   18.9476 C   0  0  0  0  0  0  0  0  0  0  0  0
    2.6276    2.6292   20.1702 C   0  0  0  0  0  0  0  0  0  0  0  0
    3.1274    2.0104   21.3369 C   0  0  0  0  0  0  0  0  0  0  0  0
    4.1431    1.0905   21.2589 C   0  0  0  0  0  0  0  0  0  0  0  0
    4.7146    0.7478   20.0042 C   0  0  0  0  0  0  0  0  0  0  0  0
    7.7989   -2.6050   23.3723 C   0  0  0  0  0  0  0  0  0  0  0  0
    7.5391   -3.7911   24.0403 C   0  0  0  0  0  0  0  0  0  0  0  0
    5.2753   -2.6635   26.3030 H   0  0  0  0  0  0  0  0  0  0  0  0
    5.7845   -0.5283   25.1581 H   0  0  0  0  0  0  0  0  0  0  0  0
    8.1248    0.6329   25.0032 H   0  0  0  0  0  0  0  0  0  0  0  0
    7.9889    1.8097   23.6917 H   0  0  0  0  0  0  0  0  0  0  0  0
   10.2191    2.7596   24.3908 H   0  0  0  0  0  0  0  0  0  0  0  0
   12.6535    2.6556   24.0115 H   0  0  0  0  0  0  0  0  0  0  0  0
   13.7035    0.5826   23.1189 H   0  0  0  0  0  0  0  0  0  0  0  0
    9.9038   -1.3579   23.1685 H   0  0  0  0  0  0  0  0  0  0  0  0
    7.1250   -1.6259   20.6725 H   0  0  0  0  0  0  0  0  0  0  0  0
    5.7359   -1.3014   21.7022 H   0  0  0  0  0  0  0  0  0  0  0  0
    7.0267   -1.1501   18.3937 H   0  0  0  0  0  0  0  0  0  0  0  0
    4.3926    1.5050   16.6827 H   0  0  0  0  0  0  0  0  0  0  0  0
    2.7811    2.7941   18.0437 H   0  0  0  0  0  0  0  0  0  0  0  0
    1.8300    3.3638   20.2568 H   0  0  0  0  0  0  0  0  0  0  0  0
    2.7116    2.2738   22.3032 H   0  0  0  0  0  0  0  0  0  0  0  0
    4.5265    0.6269   22.1642 H   0  0  0  0  0  0  0  0  0  0  0  0
    8.4808   -2.6265   22.5242 H   0  0  0  0  0  0  0  0  0  0  0  0
    8.0454   -4.6982   23.7369 H   0  0  0  0  0  0  0  0  0  0  0  0
  1  2  3  0
  2  3  1  0
  3  4  2  0
  4  5  1  0
  5  6  2  0
  6  7  1  0
  7  8  1  0
  8  9  1  0
  9 10  2  0
 10 11  1  0
 11 12  2  0
 12 13  1  0
 13 14  1  0
 13 15  2  0
  7 16  1  0
 16 17  2  0
 16 18  1  0
 18 19  1  0
 19 20  2  0
 20 21  1  0
 21 22  2  0
 22 23  1  0
 23 24  2  0
 24 25  1  0
 25 26  2  0
 26 27  1  0
 27 28  2  0
  6 29  1  0
 29 30  2  0
 30  3  1  0
 15  9  1  0
 28 19  1  0
 28 23  1  0
  4 31  1  0
  5 32  1  0
  8 33  1  0
  8 34  1  0
 10 35  1  0
 11 36  1  0
 12 37  1  0
 15 38  1  0
 18 39  1  0
 18 40  1  0
 20 41  1  0
 22 42  1  0
 24 43  1  0
 25 44  1  0
 26 45  1  0
 27 46  1  0
 29 47  1  0
 30 48  1  0
M  END
>  <RMSD>  (70) 
0.03150557317060502

$$$$

     RDKit          3D

 42 45  0  0  0  0  0  0  0  0999 V2000
    6.7731    1.7522   25.2737 C   0  0  0  0  0  0  0  0  0  0  0  0
    7.6445    0.9517   24.4342 N   0  0  0  0  0  0  0  0  0  0  0  0
    7.1706   -0.3808   24.1138 C   0  0  0  0  0  0  0  0  0  0  0  0
    7.9053   -0.9567   22.8991 C   0  0  1  0  0  0  0  0  0  0  0  0
    7.5039   -0.2294   21.6097 C   0  0  0  0  0  0  0  0  0  0  0  0
    8.0888    0.7426   21.1773 O   0  0  0  0  0  0  0  0  0  0  0  0
    6.4015   -0.7548   20.9717 N   0  0  0  0  0  0  0  0  0  0  0  0
    5.8081   -0.1359   19.8384 C   0  0  0  0  0  0  0  0  0  0  0  0
    6.2418   -0.4247   18.5704 C   0  0  0  0  0  0  0  0  0  0  0  0
    5.7371    0.1252   17.4375 N   0  0  0  0  0  0  0  0  0  0  0  0
    4.7689    1.0025   17.5727 C   0  0  0  0  0  0  0  0  0  0  0  0
    4.1968    1.3713   18.8250 C   0  0  0  0  0  0  0  0  0  0  0  0
    3.1537    2.3313   18.9457 C   0  0  0  0  0  0  0  0  0  0  0  0
    2.6359    2.6374   20.1762 C   0  0  0  0  0  0  0  0  0  0  0  0
    3.1247    2.0042   21.3424 C   0  0  0  0  0  0  0  0  0  0  0  0
    4.1345    1.0814   21.2556 C   0  0  0  0  0  0  0  0  0  0  0  0
    4.7054    0.7602   19.9927 C   0  0  0  0  0  0  0  0  0  0  0  0
    9.3857   -0.8535   23.1207 C   0  0  0  0  0  0  0  0  0  0  0  0
   10.2480   -1.7963   22.5605 C   0  0  0  0  0  0  0  0  0  0  0  0
   11.6188   -1.6267   22.6835 C   0  0  0  0  0  0  0  0  0  0  0  0
   12.6896   -2.8083   21.9883 Cl  0  0  0  0  0  0  0  0  0  0  0  0
   12.1512   -0.5213   23.3511 C   0  0  0  0  0  0  0  0  0  0  0  0
   11.2877    0.4117   23.9019 C   0  0  0  0  0  0  0  0  0  0  0  0
    9.9015    0.2462   23.7976 C   0  0  0  0  0  0  0  0  0  0  0  0
    8.9830    1.2580   24.4318 C   0  0  0  0  0  0  0  0  0  0  0  0
    9.4197    2.2658   24.9546 O   0  0  0  0  0  0  0  0  0  0  0  0
    6.8107    1.4387   26.3256 H   0  0  0  0  0  0  0  0  0  0  0  0
    5.7470    1.6450   24.9151 H   0  0  0  0  0  0  0  0  0  0  0  0
    7.0695    2.7979   25.2156 H   0  0  0  0  0  0  0  0  0  0  0  0
    6.1014   -0.3104   23.8957 H   0  0  0  0  0  0  0  0  0  0  0  0
    7.2806   -1.0640   24.9715 H   0  0  0  0  0  0  0  0  0  0  0  0
    7.6209   -2.0050   22.7859 H   0  0  0  0  0  0  0  0  0  0  0  0
    5.8991   -1.5079   21.4170 H   0  0  0  0  0  0  0  0  0  0  0  0
    7.0438   -1.1452   18.4246 H   0  0  0  0  0  0  0  0  0  0  0  0
    4.3787    1.4699   16.6672 H   0  0  0  0  0  0  0  0  0  0  0  0
    2.7865    2.8216   18.0470 H   0  0  0  0  0  0  0  0  0  0  0  0
    1.8443    3.3765   20.2693 H   0  0  0  0  0  0  0  0  0  0  0  0
    2.7034    2.2520   22.3124 H   0  0  0  0  0  0  0  0  0  0  0  0
    4.5200    0.6014   22.1508 H   0  0  0  0  0  0  0  0  0  0  0  0
    9.8510   -2.6620   22.0336 H   0  0  0  0  0  0  0  0  0  0  0  0
   13.2307   -0.4009   23.4257 H   0  0  0  0  0  0  0  0  0  0  0  0
   11.6798    1.2786   24.4237 H   0  0  0  0  0  0  0  0  0  0  0  0
  1  2  1  0
  2  3  1  0
  3  4  1  0
  4  5  1  0
  5  6  2  0
  5  7  1  0
  7  8  1  0
  8  9  2  0
  9 10  1  0
 10 11  2  0
 11 12  1  0
 12 13  2  0
 13 14  1  0
 14 15  2  0
 15 16  1  0
 16 17  2  0
  4 18  1  0
 18 19  2  0
 19 20  1  0
 20 21  1  0
 20 22  2  0
 22 23  1  0
 23 24  2  0
 24 25  1  0
 25 26  2  0
 25  2  1  0
 17  8  1  0
 24 18  1  0
 17 12  1  0
  1 27  1  0
  1 28  1  0
  1 29  1  0
  3 30  1  0
  3 31  1  0
  4 32  1  6
  7 33  1  0
  9 34  1  0
 11 35  1  0
 13 36  1  0
 14 37  1  0
 15 38  1  0
 16 39  1  0
 19 40  1  0
 22 41  1  0
 23 42  1  0
M  END
>  <RMSD>  (71) 
0.040113060197939795

$$$$

     RDKit          3D

 46 48  0  0  0  0  0  0  0  0999 V2000
   10.4328   -2.3464   22.0959 C   0  0  0  0  0  0  0  0  0  0  0  0
   10.3786   -0.9365   22.6729 C   0  0  0  0  0  0  0  0  0  0  0  0
    9.1857   -0.7607   23.6190 C   0  0  1  0  0  0  0  0  0  0  0  0
    9.3344    0.4474   24.5413 C   0  0  0  0  0  0  0  0  0  0  0  0
    8.2369    0.4787   25.6100 C   0  0  1  0  0  0  0  0  0  0  0  0
    8.5612    1.6488   26.5190 C   0  0  0  0  0  0  0  0  0  0  0  0
    8.7119    2.8020   25.8359 F   0  0  0  0  0  0  0  0  0  0  0  0
    7.6615    1.8756   27.4889 F   0  0  0  0  0  0  0  0  0  0  0  0
    9.7408    1.3726   27.1255 F   0  0  0  0  0  0  0  0  0  0  0  0
    6.8720    0.4512   24.9203 C   0  0  0  0  0  0  0  0  0  0  0  0
    6.7964   -0.7980   24.0204 C   0  0  0  0  0  0  0  0  0  0  0  0
    7.8411   -0.7548   22.9930 N   0  0  0  0  0  0  0  0  0  0  0  0
    7.6111   -0.3799   21.6691 C   0  0  0  0  0  0  0  0  0  0  0  0
    8.3755    0.3100   21.0173 O   0  0  0  0  0  0  0  0  0  0  0  0
    6.3547   -0.9763   21.0023 C   0  0  0  0  0  0  0  0  0  0  0  0
    5.7740   -0.2051   19.8395 C   0  0  0  0  0  0  0  0  0  0  0  0
    6.2247   -0.4322   18.5656 C   0  0  0  0  0  0  0  0  0  0  0  0
    5.7647    0.1712   17.4361 N   0  0  0  0  0  0  0  0  0  0  0  0
    4.7854    1.0311   17.5853 C   0  0  0  0  0  0  0  0  0  0  0  0
    4.2002    1.3609   18.8377 C   0  0  0  0  0  0  0  0  0  0  0  0
    3.1452    2.3005   18.9471 C   0  0  0  0  0  0  0  0  0  0  0  0
    2.6221    2.6252   20.1701 C   0  0  0  0  0  0  0  0  0  0  0  0
    3.1343    2.0166   21.3377 C   0  0  0  0  0  0  0  0  0  0  0  0
    4.1448    1.0951   21.2567 C   0  0  0  0  0  0  0  0  0  0  0  0
    4.7127    0.7357   20.0050 C   0  0  0  0  0  0  0  0  0  0  0  0
   10.4873   -3.0862   22.8992 H   0  0  0  0  0  0  0  0  0  0  0  0
   11.3066   -2.5102   21.4573 H   0  0  0  0  0  0  0  0  0  0  0  0
    9.5347   -2.5687   21.5140 H   0  0  0  0  0  0  0  0  0  0  0  0
   10.3272   -0.1880   21.8865 H   0  0  0  0  0  0  0  0  0  0  0  0
   11.3008   -0.7466   23.2416 H   0  0  0  0  0  0  0  0  0  0  0  0
    9.2000   -1.6442   24.2842 H   0  0  0  0  0  0  0  0  0  0  0  0
   10.3132    0.4157   25.0295 H   0  0  0  0  0  0  0  0  0  0  0  0
    9.2789    1.3829   23.9697 H   0  0  0  0  0  0  0  0  0  0  0  0
    8.3171   -0.3931   26.2740 H   0  0  0  0  0  0  0  0  0  0  0  0
    6.0404    0.4552   25.6322 H   0  0  0  0  0  0  0  0  0  0  0  0
    6.7638    1.3357   24.2795 H   0  0  0  0  0  0  0  0  0  0  0  0
    5.8079   -0.8776   23.5654 H   0  0  0  0  0  0  0  0  0  0  0  0
    6.9280   -1.7197   24.6109 H   0  0  0  0  0  0  0  0  0  0  0  0
    6.6838   -1.9564   20.6286 H   0  0  0  0  0  0  0  0  0  0  0  0
    5.5773   -1.1877   21.7382 H   0  0  0  0  0  0  0  0  0  0  0  0
    7.0230   -1.1528   18.3893 H   0  0  0  0  0  0  0  0  0  0  0  0
    4.4052    1.5189   16.6844 H   0  0  0  0  0  0  0  0  0  0  0  0
    2.7697    2.7710   18.0413 H   0  0  0  0  0  0  0  0  0  0  0  0
    1.8285    3.3615   20.2550 H   0  0  0  0  0  0  0  0  0  0  0  0
    2.7249    2.2911   22.3077 H   0  0  0  0  0  0  0  0  0  0  0  0
    4.5241    0.6406   22.1695 H   0  0  0  0  0  0  0  0  0  0  0  0
  1  2  1  0
  2  3  1  0
  3  4  1  0
  4  5  1  0
  5  6  1  0
  6  7  1  0
  6  8  1  0
  6  9  1  0
  5 10  1  0
 10 11  1  0
 11 12  1  0
 12 13  1  0
 13 14  2  0
 13 15  1  0
 15 16  1  0
 16 17  2  0
 17 18  1  0
 18 19  2  0
 19 20  1  0
 20 21  2  0
 21 22  1  0
 22 23  2  0
 23 24  1  0
 24 25  2  0
 12  3  1  0
 25 16  1  0
 25 20  1  0
  1 26  1  0
  1 27  1  0
  1 28  1  0
  2 29  1  0
  2 30  1  0
  3 31  1  1
  4 32  1  0
  4 33  1  0
  5 34  1  1
 10 35  1  0
 10 36  1  0
 11 37  1  0
 11 38  1  0
 15 39  1  0
 15 40  1  0
 17 41  1  0
 19 42  1  0
 21 43  1  0
 22 44  1  0
 23 45  1  0
 24 46  1  0
M  END
>  <RMSD>  (72) 
0.03916018725887799

$$$$

     RDKit          3D

 66 71  0  0  0  0  0  0  0  0999 V2000
    7.0602   -3.2914   23.5041 C   0  0  0  0  0  0  0  0  0  0  0  0
    7.3498   -2.2870   22.3965 C   0  0  1  0  0  0  0  0  0  0  0  0
    6.1366   -1.9295   21.5289 C   0  0  0  0  0  0  0  0  0  0  0  0
    6.5322   -0.6625   20.9390 N   0  0  0  0  0  0  0  0  0  0  0  0
    5.8824   -0.0578   19.8294 C   0  0  0  0  0  0  0  0  0  0  0  0
    6.3051   -0.3465   18.5577 C   0  0  0  0  0  0  0  0  0  0  0  0
    5.7655    0.1754   17.4269 N   0  0  0  0  0  0  0  0  0  0  0  0
    4.7631    1.0125   17.5670 C   0  0  0  0  0  0  0  0  0  0  0  0
    4.2013    1.3821   18.8243 C   0  0  0  0  0  0  0  0  0  0  0  0
    3.1164    2.2974   18.9387 C   0  0  0  0  0  0  0  0  0  0  0  0
    2.6067    2.6161   20.1685 C   0  0  0  0  0  0  0  0  0  0  0  0
    3.1448    2.0366   21.3409 C   0  0  0  0  0  0  0  0  0  0  0  0
    4.2029    1.1651   21.2601 C   0  0  0  0  0  0  0  0  0  0  0  0
    4.7663    0.8226   19.9987 C   0  0  0  0  0  0  0  0  0  0  0  0
    7.5382   -0.0256   21.6327 C   0  0  0  0  0  0  0  0  0  0  0  0
    8.0056    1.0543   21.3271 O   0  0  0  0  0  0  0  0  0  0  0  0
    7.9215   -0.9122   22.8451 C   0  0  1  0  0  0  0  0  0  0  0  0
    7.2031   -0.3802   24.1142 C   0  0  0  0  0  0  0  0  0  0  0  0
    7.6693    0.9452   24.4797 N   0  0  0  0  0  0  0  0  0  0  0  0
    6.7730    1.8248   25.2054 C   0  0  0  0  0  0  0  0  0  0  0  0
    6.2131    3.0242   24.4343 C   0  0  0  0  0  0  0  0  0  0  0  0
    5.3312    3.7037   24.9394 O   0  0  0  0  0  0  0  0  0  0  0  0
    6.6856    3.2263   23.1814 N   0  0  0  0  0  0  0  0  0  0  0  0
    6.1098    4.2621   22.3461 C   0  0  0  0  0  0  0  0  0  0  0  0
    6.5670    5.6277   22.7494 C   0  0  0  0  0  0  0  0  0  0  0  0
    7.8667    6.0574   22.8812 C   0  0  0  0  0  0  0  0  0  0  0  0
    7.7461    7.3994   23.2687 C   0  0  0  0  0  0  0  0  0  0  0  0
    6.4763    7.7771   23.3808 N   0  0  0  0  0  0  0  0  0  0  0  0
    5.7699    6.6827   23.0511 N   0  0  0  0  0  0  0  0  0  0  0  0
    4.3224    6.6810   23.0628 C   0  0  0  0  0  0  0  0  0  0  0  0
    8.9974    1.2719   24.4415 C   0  0  0  0  0  0  0  0  0  0  0  0
    9.3992    2.3485   24.8618 O   0  0  0  0  0  0  0  0  0  0  0  0
    9.9182    0.2504   23.8333 C   0  0  0  0  0  0  0  0  0  0  0  0
   11.2953    0.4309   23.9866 C   0  0  0  0  0  0  0  0  0  0  0  0
   12.1800   -0.4849   23.4404 C   0  0  0  0  0  0  0  0  0  0  0  0
   11.6878   -1.5935   22.7441 C   0  0  0  0  0  0  0  0  0  0  0  0
   10.3222   -1.7692   22.5892 C   0  0  0  0  0  0  0  0  0  0  0  0
    9.4113   -0.8473   23.1169 C   0  0  0  0  0  0  0  0  0  0  0  0
    6.2382   -2.9516   24.1416 H   0  0  0  0  0  0  0  0  0  0  0  0
    7.9293   -3.4378   24.1542 H   0  0  0  0  0  0  0  0  0  0  0  0
    6.7800   -4.2686   23.0978 H   0  0  0  0  0  0  0  0  0  0  0  0
    8.0773   -2.7347   21.7153 H   0  0  0  0  0  0  0  0  0  0  0  0
    5.2266   -1.8541   22.1504 H   0  0  0  0  0  0  0  0  0  0  0  0
    5.9432   -2.6714   20.7502 H   0  0  0  0  0  0  0  0  0  0  0  0
    7.1400   -1.0282   18.4084 H   0  0  0  0  0  0  0  0  0  0  0  0
    4.3379    1.4419   16.6571 H   0  0  0  0  0  0  0  0  0  0  0  0
    2.7087    2.7457   18.0341 H   0  0  0  0  0  0  0  0  0  0  0  0
    1.7874    3.3248   20.2604 H   0  0  0  0  0  0  0  0  0  0  0  0
    2.7497    2.3109   22.3169 H   0  0  0  0  0  0  0  0  0  0  0  0
    4.6262    0.7315   22.1633 H   0  0  0  0  0  0  0  0  0  0  0  0
    7.3660   -1.0772   24.9500 H   0  0  0  0  0  0  0  0  0  0  0  0
    6.1257   -0.3199   23.9260 H   0  0  0  0  0  0  0  0  0  0  0  0
    5.9049    1.2415   25.5318 H   0  0  0  0  0  0  0  0  0  0  0  0
    7.2645    2.1910   26.1136 H   0  0  0  0  0  0  0  0  0  0  0  0
    7.5708    2.8398   22.8872 H   0  0  0  0  0  0  0  0  0  0  0  0
    6.4387    4.0398   21.3221 H   0  0  0  0  0  0  0  0  0  0  0  0
    5.0197    4.1706   22.3676 H   0  0  0  0  0  0  0  0  0  0  0  0
    8.7588    5.4652   22.7007 H   0  0  0  0  0  0  0  0  0  0  0  0
    8.5472    8.0935   23.4674 H   0  0  0  0  0  0  0  0  0  0  0  0
    3.9336    5.9492   23.7766 H   0  0  0  0  0  0  0  0  0  0  0  0
    3.9813    7.6754   23.3357 H   0  0  0  0  0  0  0  0  0  0  0  0
    3.9267    6.4360   22.0730 H   0  0  0  0  0  0  0  0  0  0  0  0
   11.6537    1.2955   24.5403 H   0  0  0  0  0  0  0  0  0  0  0  0
   13.2544   -0.3436   23.5411 H   0  0  0  0  0  0  0  0  0  0  0  0
   12.3669   -2.3189   22.3017 H   0  0  0  0  0  0  0  0  0  0  0  0
    9.9619   -2.6418   22.0520 H   0  0  0  0  0  0  0  0  0  0  0  0
  1  2  1  0
  2  3  1  0
  3  4  1  0
  4  5  1  0
  5  6  2  0
  6  7  1  0
  7  8  2  0
  8  9  1  0
  9 10  2  0
 10 11  1  0
 11 12  2  0
 12 13  1  0
 13 14  2  0
  4 15  1  0
 15 16  2  0
 15 17  1  0
 17 18  1  1
 18 19  1  0
 19 20  1  0
 20 21  1  0
 21 22  2  0
 21 23  1  0
 23 24  1  0
 24 25  1  0
 25 26  2  0
 26 27  1  0
 27 28  2  0
 28 29  1  0
 29 30  1  0
 19 31  1  0
 31 32  2  0
 31 33  1  0
 33 34  2  0
 34 35  1  0
 35 36  2  0
 36 37  1  0
 37 38  2  0
 17  2  1  0
 29 25  1  0
 38 33  1  0
 14  5  1  0
 38 17  1  0
 14  9  1  0
  1 39  1  0
  1 40  1  0
  1 41  1  0
  2 42  1  6
  3 43  1  0
  3 44  1  0
  6 45  1  0
  8 46  1  0
 10 47  1  0
 11 48  1  0
 12 49  1  0
 13 50  1  0
 18 51  1  0
 18 52  1  0
 20 53  1  0
 20 54  1  0
 23 55  1  0
 24 56  1  0
 24 57  1  0
 26 58  1  0
 27 59  1  0
 30 60  1  0
 30 61  1  0
 30 62  1  0
 34 63  1  0
 35 64  1  0
 36 65  1  0
 37 66  1  0
M  END
>  <RMSD>  (73) 
0.17239169414406938

$$$$

     RDKit          3D

 59 64  0  0  0  0  0  0  0  0999 V2000
    7.0656   -3.2849   23.5078 C   0  0  0  0  0  0  0  0  0  0  0  0
    7.3540   -2.2840   22.3985 C   0  0  1  0  0  0  0  0  0  0  0  0
    6.1401   -1.9259   21.5324 C   0  0  0  0  0  0  0  0  0  0  0  0
    6.5317   -0.6603   20.9409 N   0  0  0  0  0  0  0  0  0  0  0  0
    5.8826   -0.0593   19.8320 C   0  0  0  0  0  0  0  0  0  0  0  0
    6.3048   -0.3475   18.5580 C   0  0  0  0  0  0  0  0  0  0  0  0
    5.7650    0.1743   17.4279 N   0  0  0  0  0  0  0  0  0  0  0  0
    4.7614    1.0124   17.5655 C   0  0  0  0  0  0  0  0  0  0  0  0
    4.2011    1.3803   18.8260 C   0  0  0  0  0  0  0  0  0  0  0  0
    3.1173    2.2980   18.9378 C   0  0  0  0  0  0  0  0  0  0  0  0
    2.6120    2.6211   20.1703 C   0  0  0  0  0  0  0  0  0  0  0  0
    3.1540    2.0460   21.3424 C   0  0  0  0  0  0  0  0  0  0  0  0
    4.2113    1.1738   21.2622 C   0  0  0  0  0  0  0  0  0  0  0  0
    4.7631    0.8209   19.9976 C   0  0  0  0  0  0  0  0  0  0  0  0
    7.5443   -0.0255   21.6289 C   0  0  0  0  0  0  0  0  0  0  0  0
    8.0206    1.0420   21.3088 O   0  0  0  0  0  0  0  0  0  0  0  0
    7.9253   -0.9090   22.8454 C   0  0  1  0  0  0  0  0  0  0  0  0
    7.2104   -0.3734   24.1167 C   0  0  0  0  0  0  0  0  0  0  0  0
    7.6758    0.9490   24.4999 N   0  0  0  0  0  0  0  0  0  0  0  0
    6.7417    1.8298   25.1873 C   0  0  0  0  0  0  0  0  0  0  0  0
    6.0841    2.8404   24.2897 C   0  0  0  0  0  0  0  0  0  0  0  0
    6.6928    3.4949   23.2031 C   0  0  0  0  0  0  0  0  0  0  0  0
    5.7341    4.3569   22.7337 C   0  0  0  0  0  0  0  0  0  0  0  0
    4.6412    4.1803   23.5118 N   0  0  0  0  0  0  0  0  0  0  0  0
    3.4228    4.9525   23.4399 C   0  0  0  0  0  0  0  0  0  0  0  0
    4.8337    3.2630   24.4736 N   0  0  0  0  0  0  0  0  0  0  0  0
    9.0024    1.2869   24.4397 C   0  0  0  0  0  0  0  0  0  0  0  0
    9.4237    2.3583   24.8590 O   0  0  0  0  0  0  0  0  0  0  0  0
    9.9194    0.2579   23.8279 C   0  0  0  0  0  0  0  0  0  0  0  0
   11.3000    0.4318   23.9772 C   0  0  0  0  0  0  0  0  0  0  0  0
   12.1906   -0.4757   23.4372 C   0  0  0  0  0  0  0  0  0  0  0  0
   11.6699   -1.5676   22.7528 C   0  0  0  0  0  0  0  0  0  0  0  0
   12.5171   -2.4574   22.2105 F   0  0  0  0  0  0  0  0  0  0  0  0
   10.3143   -1.7715   22.5846 C   0  0  0  0  0  0  0  0  0  0  0  0
    9.4127   -0.8429   23.1159 C   0  0  0  0  0  0  0  0  0  0  0  0
    6.7847   -4.2607   23.1026 H   0  0  0  0  0  0  0  0  0  0  0  0
    7.9341   -3.4306   24.1575 H   0  0  0  0  0  0  0  0  0  0  0  0
    6.2442   -2.9441   24.1437 H   0  0  0  0  0  0  0  0  0  0  0  0
    8.0772   -2.7373   21.7153 H   0  0  0  0  0  0  0  0  0  0  0  0
    5.9494   -2.6691   20.7560 H   0  0  0  0  0  0  0  0  0  0  0  0
    5.2320   -1.8510   22.1552 H   0  0  0  0  0  0  0  0  0  0  0  0
    7.1403   -1.0273   18.4076 H   0  0  0  0  0  0  0  0  0  0  0  0
    4.3349    1.4409   16.6572 H   0  0  0  0  0  0  0  0  0  0  0  0
    2.7068    2.7450   18.0355 H   0  0  0  0  0  0  0  0  0  0  0  0
    1.7872    3.3260   20.2571 H   0  0  0  0  0  0  0  0  0  0  0  0
    2.7356    2.2982   22.3143 H   0  0  0  0  0  0  0  0  0  0  0  0
    4.6277    0.7253   22.1588 H   0  0  0  0  0  0  0  0  0  0  0  0
    7.3732   -1.0686   24.9520 H   0  0  0  0  0  0  0  0  0  0  0  0
    6.1336   -0.3110   23.9330 H   0  0  0  0  0  0  0  0  0  0  0  0
    5.9758    1.2157   25.6700 H   0  0  0  0  0  0  0  0  0  0  0  0
    7.3010    2.3435   25.9758 H   0  0  0  0  0  0  0  0  0  0  0  0
    7.7033    3.3723   22.8316 H   0  0  0  0  0  0  0  0  0  0  0  0
    5.7610    5.0830   21.9233 H   0  0  0  0  0  0  0  0  0  0  0  0
    2.6084    4.4083   23.9162 H   0  0  0  0  0  0  0  0  0  0  0  0
    3.5253    5.9257   23.9290 H   0  0  0  0  0  0  0  0  0  0  0  0
    3.1653    5.1299   22.3940 H   0  0  0  0  0  0  0  0  0  0  0  0
   11.6643    1.2914   24.5272 H   0  0  0  0  0  0  0  0  0  0  0  0
   13.2686   -0.3535   23.5246 H   0  0  0  0  0  0  0  0  0  0  0  0
    9.9848   -2.6531   22.0445 H   0  0  0  0  0  0  0  0  0  0  0  0
  1  2  1  0
  2  3  1  0
  3  4  1  0
  4  5  1  0
  5  6  2  0
  6  7  1  0
  7  8  2  0
  8  9  1  0
  9 10  2  0
 10 11  1  0
 11 12  2  0
 12 13  1  0
 13 14  2  0
  4 15  1  0
 15 16  2  0
 15 17  1  0
 17 18  1  1
 18 19  1  0
 19 20  1  0
 20 21  1  0
 21 22  1  0
 22 23  2  0
 23 24  1  0
 24 25  1  0
 24 26  1  0
 19 27  1  0
 27 28  2  0
 27 29  1  0
 29 30  2  0
 30 31  1  0
 31 32  2  0
 32 33  1  0
 32 34  1  0
 34 35  2  0
 17  2  1  0
 26 21  2  0
 35 29  1  0
 14  5  1  0
 35 17  1  0
 14  9  1  0
  1 36  1  0
  1 37  1  0
  1 38  1  0
  2 39  1  6
  3 40  1  0
  3 41  1  0
  6 42  1  0
  8 43  1  0
 10 44  1  0
 11 45  1  0
 12 46  1  0
 13 47  1  0
 18 48  1  0
 18 49  1  0
 20 50  1  0
 20 51  1  0
 22 52  1  0
 23 53  1  0
 25 54  1  0
 25 55  1  0
 25 56  1  0
 30 57  1  0
 31 58  1  0
 34 59  1  0
M  END
>  <RMSD>  (74) 
0.17198405220589172

$$$$

     RDKit          3D

 56 61  0  0  0  0  0  0  0  0999 V2000
    7.0670   -3.2857   23.5074 C   0  0  0  0  0  0  0  0  0  0  0  0
    7.3600   -2.2803   22.3976 C   0  0  1  0  0  0  0  0  0  0  0  0
    6.1411   -1.9287   21.5313 C   0  0  0  0  0  0  0  0  0  0  0  0
    6.5339   -0.6619   20.9406 N   0  0  0  0  0  0  0  0  0  0  0  0
    5.8840   -0.0588   19.8292 C   0  0  0  0  0  0  0  0  0  0  0  0
    6.3049   -0.3448   18.5572 C   0  0  0  0  0  0  0  0  0  0  0  0
    5.7614    0.1755   17.4252 N   0  0  0  0  0  0  0  0  0  0  0  0
    4.7594    1.0115   17.5703 C   0  0  0  0  0  0  0  0  0  0  0  0
    4.2017    1.3834   18.8267 C   0  0  0  0  0  0  0  0  0  0  0  0
    3.1178    2.2984   18.9430 C   0  0  0  0  0  0  0  0  0  0  0  0
    2.6095    2.6204   20.1682 C   0  0  0  0  0  0  0  0  0  0  0  0
    3.1504    2.0415   21.3414 C   0  0  0  0  0  0  0  0  0  0  0  0
    4.2071    1.1702   21.2604 C   0  0  0  0  0  0  0  0  0  0  0  0
    4.7680    0.8244   20.0029 C   0  0  0  0  0  0  0  0  0  0  0  0
    7.5469   -0.0234   21.6254 C   0  0  0  0  0  0  0  0  0  0  0  0
    8.0153    1.0451   21.3050 O   0  0  0  0  0  0  0  0  0  0  0  0
    7.9295   -0.9040   22.8412 C   0  0  1  0  0  0  0  0  0  0  0  0
    7.2195   -0.3799   24.1172 C   0  0  0  0  0  0  0  0  0  0  0  0
    7.7058    0.9271   24.5132 N   0  0  0  0  0  0  0  0  0  0  0  0
    6.7800    1.8181   25.1887 C   0  0  0  0  0  0  0  0  0  0  0  0
    6.1235    2.8135   24.2773 C   0  0  0  0  0  0  0  0  0  0  0  0
    4.8142    3.3232   24.3541 C   0  0  0  0  0  0  0  0  0  0  0  0
    4.5820    4.2403   23.4202 N   0  0  0  0  0  0  0  0  0  0  0  0
    5.7336    4.3172   22.7475 N   0  0  0  0  0  0  0  0  0  0  0  0
    6.6920    3.4857   23.2178 C   0  0  0  0  0  0  0  0  0  0  0  0
    9.0221    1.2774   24.4349 C   0  0  0  0  0  0  0  0  0  0  0  0
    9.4265    2.3608   24.8417 O   0  0  0  0  0  0  0  0  0  0  0  0
    9.9319    0.2569   23.8185 C   0  0  0  0  0  0  0  0  0  0  0  0
   11.3074    0.4293   23.9686 C   0  0  0  0  0  0  0  0  0  0  0  0
   12.1973   -0.4792   23.4294 C   0  0  0  0  0  0  0  0  0  0  0  0
   11.6724   -1.5724   22.7434 C   0  0  0  0  0  0  0  0  0  0  0  0
   12.5240   -2.4626   22.2025 F   0  0  0  0  0  0  0  0  0  0  0  0
   10.3162   -1.7723   22.5801 C   0  0  0  0  0  0  0  0  0  0  0  0
    9.4159   -0.8408   23.1093 C   0  0  0  0  0  0  0  0  0  0  0  0
    6.7851   -4.2648   23.0992 H   0  0  0  0  0  0  0  0  0  0  0  0
    6.2440   -2.9422   24.1464 H   0  0  0  0  0  0  0  0  0  0  0  0
    7.9408   -3.4303   24.1537 H   0  0  0  0  0  0  0  0  0  0  0  0
    8.0839   -2.7297   21.7123 H   0  0  0  0  0  0  0  0  0  0  0  0
    5.2295   -1.8463   22.1521 H   0  0  0  0  0  0  0  0  0  0  0  0
    5.9415   -2.6702   20.7506 H   0  0  0  0  0  0  0  0  0  0  0  0
    7.1383   -1.0282   18.4073 H   0  0  0  0  0  0  0  0  0  0  0  0
    4.3349    1.4390   16.6593 H   0  0  0  0  0  0  0  0  0  0  0  0
    2.7114    2.7431   18.0348 H   0  0  0  0  0  0  0  0  0  0  0  0
    1.7875    3.3274   20.2545 H   0  0  0  0  0  0  0  0  0  0  0  0
    2.7372    2.2998   22.3109 H   0  0  0  0  0  0  0  0  0  0  0  0
    4.6294    0.7268   22.1593 H   0  0  0  0  0  0  0  0  0  0  0  0
    6.1417   -0.3004   23.9326 H   0  0  0  0  0  0  0  0  0  0  0  0
    7.3758   -1.0866   24.9472 H   0  0  0  0  0  0  0  0  0  0  0  0
    6.0053    1.2114   25.6750 H   0  0  0  0  0  0  0  0  0  0  0  0
    7.3337    2.3372   25.9789 H   0  0  0  0  0  0  0  0  0  0  0  0
    4.0268    3.0561   25.0495 H   0  0  0  0  0  0  0  0  0  0  0  0
    5.8029    4.9577   21.9758 H   0  0  0  0  0  0  0  0  0  0  0  0
    7.6813    3.4395   22.7848 H   0  0  0  0  0  0  0  0  0  0  0  0
   11.6652    1.2928   24.5185 H   0  0  0  0  0  0  0  0  0  0  0  0
   13.2744   -0.3588   23.5149 H   0  0  0  0  0  0  0  0  0  0  0  0
    9.9871   -2.6537   22.0388 H   0  0  0  0  0  0  0  0  0  0  0  0
  1  2  1  0
  2  3  1  0
  3  4  1  0
  4  5  1  0
  5  6  2  0
  6  7  1  0
  7  8  2  0
  8  9  1  0
  9 10  2  0
 10 11  1  0
 11 12  2  0
 12 13  1  0
 13 14  2  0
  4 15  1  0
 15 16  2  0
 15 17  1  0
 17 18  1  1
 18 19  1  0
 19 20  1  0
 20 21  1  0
 21 22  1  0
 22 23  2  0
 23 24  1  0
 24 25  1  0
 19 26  1  0
 26 27  2  0
 26 28  1  0
 28 29  2  0
 29 30  1  0
 30 31  2  0
 31 32  1  0
 31 33  1  0
 33 34  2  0
 17  2  1  0
 25 21  2  0
 34 28  1  0
 14  5  1  0
 34 17  1  0
 14  9  1  0
  1 35  1  0
  1 36  1  0
  1 37  1  0
  2 38  1  6
  3 39  1  0
  3 40  1  0
  6 41  1  0
  8 42  1  0
 10 43  1  0
 11 44  1  0
 12 45  1  0
 13 46  1  0
 18 47  1  0
 18 48  1  0
 20 49  1  0
 20 50  1  0
 22 51  1  0
 24 52  1  0
 25 53  1  0
 29 54  1  0
 30 55  1  0
 33 56  1  0
M  END
>  <RMSD>  (75) 
0.17191731106259503

$$$$

     RDKit          3D

 51 54  0  0  0  0  0  0  0  0999 V2000
    5.2982   -4.9833   28.1565 N   0  0  0  0  0  0  0  0  0  0  0  0
    5.7463   -5.0638   27.0953 C   0  0  0  0  0  0  0  0  0  0  0  0
    6.2791   -5.1549   25.7307 C   0  0  0  0  0  0  0  0  0  0  0  0
    6.5724   -3.8114   25.0774 C   0  0  0  0  0  0  0  0  0  0  0  0
    5.9239   -2.6330   25.4452 C   0  0  0  0  0  0  0  0  0  0  0  0
    6.2375   -1.4234   24.8259 C   0  0  0  0  0  0  0  0  0  0  0  0
    7.1839   -1.3745   23.7978 C   0  0  0  0  0  0  0  0  0  0  0  0
    7.5388   -0.1256   23.1881 N   0  0  0  0  0  0  0  0  0  0  0  0
    8.3227    0.8298   23.9712 C   0  0  0  0  0  0  0  0  0  0  0  0
    9.8352    0.7468   23.7669 C   0  0  0  0  0  0  0  0  0  0  0  0
   10.6440    1.8561   24.0321 C   0  0  0  0  0  0  0  0  0  0  0  0
   12.0216    1.7930   23.8289 C   0  0  0  0  0  0  0  0  0  0  0  0
   12.6193    0.6304   23.3542 C   0  0  0  0  0  0  0  0  0  0  0  0
   11.8166   -0.4783   23.1299 C   0  0  0  0  0  0  0  0  0  0  0  0
   12.5289   -1.9585   22.5469 Cl  0  0  0  0  0  0  0  0  0  0  0  0
   10.4469   -0.4373   23.3561 C   0  0  0  0  0  0  0  0  0  0  0  0
    7.3280    0.1660   21.8476 C   0  0  0  0  0  0  0  0  0  0  0  0
    7.7995    1.1632   21.3245 O   0  0  0  0  0  0  0  0  0  0  0  0
    6.4585   -0.8166   21.0397 C   0  0  0  0  0  0  0  0  0  0  0  0
    5.7928   -0.1835   19.8457 C   0  0  0  0  0  0  0  0  0  0  0  0
    6.2272   -0.4242   18.5709 C   0  0  0  0  0  0  0  0  0  0  0  0
    5.7470    0.1515   17.4303 N   0  0  0  0  0  0  0  0  0  0  0  0
    4.7807    1.0168   17.5796 C   0  0  0  0  0  0  0  0  0  0  0  0
    4.2108    1.3598   18.8375 C   0  0  0  0  0  0  0  0  0  0  0  0
    3.1595    2.3062   18.9461 C   0  0  0  0  0  0  0  0  0  0  0  0
    2.6290    2.6283   20.1662 C   0  0  0  0  0  0  0  0  0  0  0  0
    3.1263    2.0118   21.3353 C   0  0  0  0  0  0  0  0  0  0  0  0
    4.1425    1.0917   21.2595 C   0  0  0  0  0  0  0  0  0  0  0  0
    4.7191    0.7444   20.0070 C   0  0  0  0  0  0  0  0  0  0  0  0
    7.7793   -2.5678   23.3839 C   0  0  0  0  0  0  0  0  0  0  0  0
    7.5042   -3.7562   24.0463 C   0  0  0  0  0  0  0  0  0  0  0  0
    5.5474   -5.7274   25.1459 H   0  0  0  0  0  0  0  0  0  0  0  0
    7.1876   -5.7676   25.7615 H   0  0  0  0  0  0  0  0  0  0  0  0
    5.1872   -2.6528   26.2466 H   0  0  0  0  0  0  0  0  0  0  0  0
    5.7583   -0.5056   25.1609 H   0  0  0  0  0  0  0  0  0  0  0  0
    7.9871    1.8447   23.7342 H   0  0  0  0  0  0  0  0  0  0  0  0
    8.0936    0.6544   25.0291 H   0  0  0  0  0  0  0  0  0  0  0  0
   10.2020    2.7767   24.4144 H   0  0  0  0  0  0  0  0  0  0  0  0
   12.6399    2.6610   24.0461 H   0  0  0  0  0  0  0  0  0  0  0  0
   13.6875    0.5784   23.1699 H   0  0  0  0  0  0  0  0  0  0  0  0
    9.8810   -1.3527   23.2318 H   0  0  0  0  0  0  0  0  0  0  0  0
    5.7205   -1.2660   21.7129 H   0  0  0  0  0  0  0  0  0  0  0  0
    7.1176   -1.6380   20.7184 H   0  0  0  0  0  0  0  0  0  0  0  0
    7.0194   -1.1472   18.3896 H   0  0  0  0  0  0  0  0  0  0  0  0
    4.3788    1.5166   16.6934 H   0  0  0  0  0  0  0  0  0  0  0  0
    2.7884    2.7861   18.0410 H   0  0  0  0  0  0  0  0  0  0  0  0
    1.8294    3.3615   20.2539 H   0  0  0  0  0  0  0  0  0  0  0  0
    2.7107    2.2751   22.3030 H   0  0  0  0  0  0  0  0  0  0  0  0
    4.5222    0.6343   22.1690 H   0  0  0  0  0  0  0  0  0  0  0  0
    8.4769   -2.5776   22.5498 H   0  0  0  0  0  0  0  0  0  0  0  0
    8.0483   -4.6516   23.7671 H   0  0  0  0  0  0  0  0  0  0  0  0
  1  2  3  0
  2  3  1  0
  3  4  1  0
  4  5  2  0
  5  6  1  0
  6  7  2  0
  7  8  1  0
  8  9  1  0
  9 10  1  0
 10 11  2  0
 11 12  1  0
 12 13  2  0
 13 14  1  0
 14 15  1  0
 14 16  2  0
  8 17  1  0
 17 18  2  0
 17 19  1  0
 19 20  1  0
 20 21  2  0
 21 22  1  0
 22 23  2  0
 23 24  1  0
 24 25  2  0
 25 26  1  0
 26 27  2  0
 27 28  1  0
 28 29  2  0
  7 30  1  0
 30 31  2  0
 31  4  1  0
 16 10  1  0
 29 20  1  0
 29 24  1  0
  3 32  1  0
  3 33  1  0
  5 34  1  0
  6 35  1  0
  9 36  1  0
  9 37  1  0
 11 38  1  0
 12 39  1  0
 13 40  1  0
 16 41  1  0
 19 42  1  0
 19 43  1  0
 21 44  1  0
 23 45  1  0
 25 46  1  0
 26 47  1  0
 27 48  1  0
 28 49  1  0
 30 50  1  0
 31 51  1  0
M  END
>  <RMSD>  (76) 
0.03254426182383731

$$$$

     RDKit          3D

 66 71  0  0  0  0  0  0  0  0999 V2000
    7.1604   -3.2727   23.5103 C   0  0  0  0  0  0  0  0  0  0  0  0
    7.3893   -2.2889   22.3710 C   0  0  1  0  0  0  0  0  0  0  0  0
    6.1295   -1.9343   21.5642 C   0  0  0  0  0  0  0  0  0  0  0  0
    6.5259   -0.6901   20.9194 N   0  0  0  0  0  0  0  0  0  0  0  0
    5.8650   -0.0862   19.8197 C   0  0  0  0  0  0  0  0  0  0  0  0
    6.3132   -0.3371   18.5482 C   0  0  0  0  0  0  0  0  0  0  0  0
    5.7707    0.1927   17.4217 N   0  0  0  0  0  0  0  0  0  0  0  0
    4.7573    1.0107   17.5750 C   0  0  0  0  0  0  0  0  0  0  0  0
    4.1942    1.3652   18.8354 C   0  0  0  0  0  0  0  0  0  0  0  0
    3.1172    2.2852   18.9441 C   0  0  0  0  0  0  0  0  0  0  0  0
    2.6090    2.6172   20.1679 C   0  0  0  0  0  0  0  0  0  0  0  0
    3.1534    2.0527   21.3416 C   0  0  0  0  0  0  0  0  0  0  0  0
    4.2041    1.1686   21.2670 C   0  0  0  0  0  0  0  0  0  0  0  0
    4.7546    0.8010   20.0065 C   0  0  0  0  0  0  0  0  0  0  0  0
    7.6676   -0.1341   21.4570 C   0  0  0  0  0  0  0  0  0  0  0  0
    8.2818    0.7981   20.9710 O   0  0  0  0  0  0  0  0  0  0  0  0
    7.9937   -0.9006   22.7577 C   0  0  1  0  0  0  0  0  0  0  0  0
    7.2207   -0.2997   23.9689 C   0  0  0  0  0  0  0  0  0  0  0  0
    7.8240    0.9122   24.4943 N   0  0  0  0  0  0  0  0  0  0  0  0
    7.0213    2.1220   24.6402 C   0  0  0  0  0  0  0  0  0  0  0  0
    6.9244    2.9231   23.3352 C   0  0  0  0  0  0  0  0  0  0  0  0
    7.9235    4.0370   23.2649 N   0  0  0  0  0  0  0  0  0  0  0  0
    7.5385    5.1026   22.2762 C   0  0  0  0  0  0  0  0  0  0  0  0
    8.5097    6.2735   22.3480 C   0  0  0  0  0  0  0  0  0  0  0  0
    9.8509    5.8949   22.1160 O   0  0  0  0  0  0  0  0  0  0  0  0
   10.2714    4.8052   22.9093 C   0  0  0  0  0  0  0  0  0  0  0  0
    9.3261    3.6065   22.8969 C   0  0  0  0  0  0  0  0  0  0  0  0
    9.1589    0.9519   24.7825 C   0  0  0  0  0  0  0  0  0  0  0  0
    9.6664    1.7824   25.5263 O   0  0  0  0  0  0  0  0  0  0  0  0
   10.0189   -0.0286   24.0284 C   0  0  0  0  0  0  0  0  0  0  0  0
   11.3965    0.0120   24.2547 C   0  0  0  0  0  0  0  0  0  0  0  0
   12.2638   -0.7372   23.4812 C   0  0  0  0  0  0  0  0  0  0  0  0
   11.7254   -1.5408   22.4734 C   0  0  0  0  0  0  0  0  0  0  0  0
   12.8012   -2.4494   21.4438 Cl  0  0  0  0  0  0  0  0  0  0  0  0
   10.3622   -1.6089   22.2483 C   0  0  0  0  0  0  0  0  0  0  0  0
    9.4757   -0.8688   23.0455 C   0  0  0  0  0  0  0  0  0  0  0  0
    6.8569   -4.2510   23.1209 H   0  0  0  0  0  0  0  0  0  0  0  0
    8.0772   -3.4025   24.0967 H   0  0  0  0  0  0  0  0  0  0  0  0
    6.3703   -2.9261   24.1888 H   0  0  0  0  0  0  0  0  0  0  0  0
    8.0696   -2.7542   21.6468 H   0  0  0  0  0  0  0  0  0  0  0  0
    5.2534   -1.8053   22.2210 H   0  0  0  0  0  0  0  0  0  0  0  0
    5.8743   -2.7059   20.8295 H   0  0  0  0  0  0  0  0  0  0  0  0
    7.1627   -1.0009   18.4021 H   0  0  0  0  0  0  0  0  0  0  0  0
    4.3348    1.4519   16.6701 H   0  0  0  0  0  0  0  0  0  0  0  0
    2.7196    2.7267   18.0337 H   0  0  0  0  0  0  0  0  0  0  0  0
    1.7882    3.3255   20.2489 H   0  0  0  0  0  0  0  0  0  0  0  0
    2.7452    2.3288   22.3084 H   0  0  0  0  0  0  0  0  0  0  0  0
    4.6218    0.7558   22.1815 H   0  0  0  0  0  0  0  0  0  0  0  0
    7.1838   -1.0548   24.7663 H   0  0  0  0  0  0  0  0  0  0  0  0
    6.1918   -0.0609   23.6824 H   0  0  0  0  0  0  0  0  0  0  0  0
    6.0282    1.8434   25.0080 H   0  0  0  0  0  0  0  0  0  0  0  0
    7.4844    2.7359   25.4113 H   0  0  0  0  0  0  0  0  0  0  0  0
    7.0746    2.2566   22.4819 H   0  0  0  0  0  0  0  0  0  0  0  0
    5.9381    3.3807   23.2219 H   0  0  0  0  0  0  0  0  0  0  0  0
    7.9636    4.4767   24.2097 H   0  0  0  0  0  0  0  0  0  0  0  0
    6.5236    5.4485   22.4782 H   0  0  0  0  0  0  0  0  0  0  0  0
    7.5418    4.6594   21.2746 H   0  0  0  0  0  0  0  0  0  0  0  0
    8.3980    6.7626   23.3344 H   0  0  0  0  0  0  0  0  0  0  0  0
    8.2586    6.9840   21.5559 H   0  0  0  0  0  0  0  0  0  0  0  0
   10.4335    5.1122   23.9589 H   0  0  0  0  0  0  0  0  0  0  0  0
   11.2387    4.4894   22.5101 H   0  0  0  0  0  0  0  0  0  0  0  0
    9.6963    2.8937   23.6226 H   0  0  0  0  0  0  0  0  0  0  0  0
    9.3020    3.0991   21.9269 H   0  0  0  0  0  0  0  0  0  0  0  0
   11.7711    0.6628   25.0389 H   0  0  0  0  0  0  0  0  0  0  0  0
   13.3385   -0.6948   23.6403 H   0  0  0  0  0  0  0  0  0  0  0  0
    9.9979   -2.2366   21.4399 H   0  0  0  0  0  0  0  0  0  0  0  0
  1  2  1  0
  2  3  1  0
  3  4  1  0
  4  5  1  0
  5  6  2  0
  6  7  1  0
  7  8  2  0
  8  9  1  0
  9 10  2  0
 10 11  1  0
 11 12  2  0
 12 13  1  0
 13 14  2  0
  4 15  1  0
 15 16  2  0
 15 17  1  0
 17 18  1  1
 18 19  1  0
 19 20  1  0
 20 21  1  0
 21 22  1  0
 22 23  1  0
 23 24  1  0
 24 25  1  0
 25 26  1  0
 26 27  1  0
 19 28  1  0
 28 29  2  0
 28 30  1  0
 30 31  2  0
 31 32  1  0
 32 33  2  0
 33 34  1  0
 33 35  1  0
 35 36  2  0
 17  2  1  0
 27 22  1  0
 36 30  1  0
 14  5  1  0
 36 17  1  0
 14  9  1  0
  1 37  1  0
  1 38  1  0
  1 39  1  0
  2 40  1  6
  3 41  1  0
  3 42  1  0
  6 43  1  0
  8 44  1  0
 10 45  1  0
 11 46  1  0
 12 47  1  0
 13 48  1  0
 18 49  1  0
 18 50  1  0
 20 51  1  0
 20 52  1  0
 21 53  1  0
 21 54  1  0
 22 55  1  0
 23 56  1  0
 23 57  1  0
 24 58  1  0
 24 59  1  0
 26 60  1  0
 26 61  1  0
 27 62  1  0
 27 63  1  0
 31 64  1  0
 32 65  1  0
 35 66  1  0
M  CHG  1  22   1
M  END
>  <RMSD>  (77) 
0.18137050811531313

$$$$

     RDKit          3D

 58 63  0  0  0  0  0  0  0  0999 V2000
    7.0785   -3.2746   23.5143 C   0  0  0  0  0  0  0  0  0  0  0  0
    7.3654   -2.2745   22.4018 C   0  0  1  0  0  0  0  0  0  0  0  0
    6.1478   -1.9222   21.5364 C   0  0  0  0  0  0  0  0  0  0  0  0
    6.5390   -0.6568   20.9406 N   0  0  0  0  0  0  0  0  0  0  0  0
    5.8861   -0.0563   19.8281 C   0  0  0  0  0  0  0  0  0  0  0  0
    6.3086   -0.3445   18.5560 C   0  0  0  0  0  0  0  0  0  0  0  0
    5.7644    0.1745   17.4257 N   0  0  0  0  0  0  0  0  0  0  0  0
    4.7623    1.0103   17.5684 C   0  0  0  0  0  0  0  0  0  0  0  0
    4.2035    1.3831   18.8253 C   0  0  0  0  0  0  0  0  0  0  0  0
    3.1177    2.2979   18.9431 C   0  0  0  0  0  0  0  0  0  0  0  0
    2.6107    2.6217   20.1707 C   0  0  0  0  0  0  0  0  0  0  0  0
    3.1481    2.0441   21.3422 C   0  0  0  0  0  0  0  0  0  0  0  0
    4.1923    1.1551   21.2537 C   0  0  0  0  0  0  0  0  0  0  0  0
    4.7668    0.8189   19.9980 C   0  0  0  0  0  0  0  0  0  0  0  0
    7.5527   -0.0229   21.6244 C   0  0  0  0  0  0  0  0  0  0  0  0
    8.0253    1.0499   21.3079 O   0  0  0  0  0  0  0  0  0  0  0  0
    7.9337   -0.8994   22.8416 C   0  0  1  0  0  0  0  0  0  0  0  0
    7.2220   -0.3469   24.1045 C   0  0  0  0  0  0  0  0  0  0  0  0
    7.6766    1.0051   24.4103 N   0  0  0  0  0  0  0  0  0  0  0  0
    6.7783    1.8441   25.2050 C   0  0  0  0  0  0  0  0  0  0  0  0
    6.9623    3.3197   25.0105 C   0  0  0  0  0  0  0  0  0  0  0  0
    7.2821    4.1411   25.9711 N   0  0  0  0  0  0  0  0  0  0  0  0
    7.3723    5.3977   25.4314 N   0  0  0  0  0  0  0  0  0  0  0  0
    7.0536    5.2939   24.1684 C   0  0  0  0  0  0  0  0  0  0  0  0
    6.7729    4.0024   23.8415 N   0  0  0  0  0  0  0  0  0  0  0  0
    6.2828    3.5264   22.5641 C   0  0  0  0  0  0  0  0  0  0  0  0
    9.0209    1.2964   24.4055 C   0  0  0  0  0  0  0  0  0  0  0  0
    9.4835    2.3349   24.8487 O   0  0  0  0  0  0  0  0  0  0  0  0
    9.9307    0.2620   23.8143 C   0  0  0  0  0  0  0  0  0  0  0  0
   11.3084    0.4436   23.9675 C   0  0  0  0  0  0  0  0  0  0  0  0
   12.2026   -0.4606   23.4290 C   0  0  0  0  0  0  0  0  0  0  0  0
   11.6802   -1.5555   22.7450 C   0  0  0  0  0  0  0  0  0  0  0  0
   12.5318   -2.4440   22.2046 F   0  0  0  0  0  0  0  0  0  0  0  0
   10.3260   -1.7615   22.5799 C   0  0  0  0  0  0  0  0  0  0  0  0
    9.4214   -0.8355   23.1071 C   0  0  0  0  0  0  0  0  0  0  0  0
    6.2572   -2.9310   24.1524 H   0  0  0  0  0  0  0  0  0  0  0  0
    7.9514   -3.4180   24.1606 H   0  0  0  0  0  0  0  0  0  0  0  0
    6.7972   -4.2527   23.1092 H   0  0  0  0  0  0  0  0  0  0  0  0
    8.0897   -2.7224   21.7167 H   0  0  0  0  0  0  0  0  0  0  0  0
    5.9535   -2.6654   20.7589 H   0  0  0  0  0  0  0  0  0  0  0  0
    5.2399   -1.8421   22.1602 H   0  0  0  0  0  0  0  0  0  0  0  0
    7.1443   -1.0254   18.4082 H   0  0  0  0  0  0  0  0  0  0  0  0
    4.3337    1.4363   16.6584 H   0  0  0  0  0  0  0  0  0  0  0  0
    2.7064    2.7417   18.0374 H   0  0  0  0  0  0  0  0  0  0  0  0
    1.7886    3.3273   20.2611 H   0  0  0  0  0  0  0  0  0  0  0  0
    2.7537    2.3183   22.3166 H   0  0  0  0  0  0  0  0  0  0  0  0
    4.6105    0.7216   22.1578 H   0  0  0  0  0  0  0  0  0  0  0  0
    6.1408   -0.3209   23.9306 H   0  0  0  0  0  0  0  0  0  0  0  0
    7.4012   -1.0308   24.9521 H   0  0  0  0  0  0  0  0  0  0  0  0
    5.7464    1.5807   24.9240 H   0  0  0  0  0  0  0  0  0  0  0  0
    6.8836    1.6584   26.2851 H   0  0  0  0  0  0  0  0  0  0  0  0
    6.9845    6.1126   23.4621 H   0  0  0  0  0  0  0  0  0  0  0  0
    6.2686    2.4403   22.5627 H   0  0  0  0  0  0  0  0  0  0  0  0
    5.2726    3.8944   22.3491 H   0  0  0  0  0  0  0  0  0  0  0  0
    6.9528    3.8448   21.7637 H   0  0  0  0  0  0  0  0  0  0  0  0
   11.6707    1.3078   24.5142 H   0  0  0  0  0  0  0  0  0  0  0  0
   13.2793   -0.3361   23.5140 H   0  0  0  0  0  0  0  0  0  0  0  0
    9.9963   -2.6432   22.0413 H   0  0  0  0  0  0  0  0  0  0  0  0
  1  2  1  0
  2  3  1  0
  3  4  1  0
  4  5  1  0
  5  6  2  0
  6  7  1  0
  7  8  2  0
  8  9  1  0
  9 10  2  0
 10 11  1  0
 11 12  2  0
 12 13  1  0
 13 14  2  0
  4 15  1  0
 15 16  2  0
 15 17  1  0
 17 18  1  1
 18 19  1  0
 19 20  1  0
 20 21  1  0
 21 22  2  0
 22 23  1  0
 23 24  2  0
 24 25  1  0
 25 26  1  0
 19 27  1  0
 27 28  2  0
 27 29  1  0
 29 30  2  0
 30 31  1  0
 31 32  2  0
 32 33  1  0
 32 34  1  0
 34 35  2  0
 17  2  1  0
 25 21  1  0
 35 29  1  0
 14  5  1  0
 35 17  1  0
 14  9  1  0
  1 36  1  0
  1 37  1  0
  1 38  1  0
  2 39  1  6
  3 40  1  0
  3 41  1  0
  6 42  1  0
  8 43  1  0
 10 44  1  0
 11 45  1  0
 12 46  1  0
 13 47  1  0
 18 48  1  0
 18 49  1  0
 20 50  1  0
 20 51  1  0
 24 52  1  0
 26 53  1  0
 26 54  1  0
 26 55  1  0
 30 56  1  0
 31 57  1  0
 34 58  1  0
M  END
>  <RMSD>  (78) 
0.17085489762833747

$$$$

     RDKit          3D

 50 54  0  0  0  0  0  0  0  0999 V2000
    7.1598   -3.3139   23.4512 C   0  0  0  0  0  0  0  0  0  0  0  0
    7.3951   -2.2968   22.3349 C   0  0  1  0  0  0  0  0  0  0  0  0
    6.1358   -1.9521   21.5180 C   0  0  0  0  0  0  0  0  0  0  0  0
    6.5031   -0.6845   20.9165 N   0  0  0  0  0  0  0  0  0  0  0  0
    5.8583   -0.0832   19.8137 C   0  0  0  0  0  0  0  0  0  0  0  0
    6.3089   -0.3413   18.5436 C   0  0  0  0  0  0  0  0  0  0  0  0
    5.7757    0.1949   17.4172 N   0  0  0  0  0  0  0  0  0  0  0  0
    4.7668    1.0197   17.5751 C   0  0  0  0  0  0  0  0  0  0  0  0
    4.2113    1.3813   18.8367 C   0  0  0  0  0  0  0  0  0  0  0  0
    3.1258    2.2865   18.9466 C   0  0  0  0  0  0  0  0  0  0  0  0
    2.6100    2.6134   20.1695 C   0  0  0  0  0  0  0  0  0  0  0  0
    3.1559    2.0548   21.3457 C   0  0  0  0  0  0  0  0  0  0  0  0
    4.2130    1.1817   21.2695 C   0  0  0  0  0  0  0  0  0  0  0  0
    4.7656    0.8206   20.0070 C   0  0  0  0  0  0  0  0  0  0  0  0
    7.6396   -0.1193   21.4526 C   0  0  0  0  0  0  0  0  0  0  0  0
    8.2213    0.8224   20.9602 O   0  0  0  0  0  0  0  0  0  0  0  0
    7.9831   -0.9112   22.7345 C   0  0  1  0  0  0  0  0  0  0  0  0
    7.2497   -0.3011   23.9453 C   0  0  0  0  0  0  0  0  0  0  0  0
    7.8786    0.9381   24.3495 N   0  0  0  0  0  0  0  0  0  0  0  0
    7.1441    2.1732   24.3748 C   0  0  0  0  0  0  0  0  0  0  0  0
    7.0986    2.9416   23.1079 C   0  0  0  0  0  0  0  0  0  0  0  0
    6.9756    3.6151   22.1754 N   0  0  0  0  0  0  0  0  0  0  0  0
    9.1930    0.9308   24.7568 C   0  0  0  0  0  0  0  0  0  0  0  0
    9.6374    1.6872   25.6023 O   0  0  0  0  0  0  0  0  0  0  0  0
   10.0291   -0.0507   23.9940 C   0  0  0  0  0  0  0  0  0  0  0  0
   11.4084    0.0040   24.1939 C   0  0  0  0  0  0  0  0  0  0  0  0
   12.2613   -0.7300   23.3895 C   0  0  0  0  0  0  0  0  0  0  0  0
   11.6979   -1.5263   22.3957 C   0  0  0  0  0  0  0  0  0  0  0  0
   12.5153   -2.2186   21.5812 F   0  0  0  0  0  0  0  0  0  0  0  0
   10.3359   -1.6116   22.1883 C   0  0  0  0  0  0  0  0  0  0  0  0
    9.4667   -0.8811   23.0096 C   0  0  0  0  0  0  0  0  0  0  0  0
    6.3570   -2.9951   24.1307 H   0  0  0  0  0  0  0  0  0  0  0  0
    6.8633   -4.2902   23.0413 H   0  0  0  0  0  0  0  0  0  0  0  0
    8.0640   -3.4654   24.0554 H   0  0  0  0  0  0  0  0  0  0  0  0
    8.1206   -2.7264   21.6339 H   0  0  0  0  0  0  0  0  0  0  0  0
    5.2514   -1.8516   22.1712 H   0  0  0  0  0  0  0  0  0  0  0  0
    5.8934   -2.6912   20.7434 H   0  0  0  0  0  0  0  0  0  0  0  0
    7.1536   -1.0143   18.4038 H   0  0  0  0  0  0  0  0  0  0  0  0
    4.3228    1.4436   16.6747 H   0  0  0  0  0  0  0  0  0  0  0  0
    2.7244    2.7106   18.0324 H   0  0  0  0  0  0  0  0  0  0  0  0
    1.7824    3.3123   20.2472 H   0  0  0  0  0  0  0  0  0  0  0  0
    2.7388    2.3208   22.3120 H   0  0  0  0  0  0  0  0  0  0  0  0
    4.6204    0.7508   22.1800 H   0  0  0  0  0  0  0  0  0  0  0  0
    6.2037   -0.0936   23.7027 H   0  0  0  0  0  0  0  0  0  0  0  0
    7.2842   -1.0105   24.7819 H   0  0  0  0  0  0  0  0  0  0  0  0
    6.1169    1.9551   24.6681 H   0  0  0  0  0  0  0  0  0  0  0  0
    7.6116    2.7826   25.1495 H   0  0  0  0  0  0  0  0  0  0  0  0
   11.7782    0.6587   24.9790 H   0  0  0  0  0  0  0  0  0  0  0  0
   13.3423   -0.6880   23.4878 H   0  0  0  0  0  0  0  0  0  0  0  0
    9.9721   -2.2394   21.3814 H   0  0  0  0  0  0  0  0  0  0  0  0
  1  2  1  0
  2  3  1  0
  3  4  1  0
  4  5  1  0
  5  6  2  0
  6  7  1  0
  7  8  2  0
  8  9  1  0
  9 10  2  0
 10 11  1  0
 11 12  2  0
 12 13  1  0
 13 14  2  0
  4 15  1  0
 15 16  2  0
 15 17  1  0
 17 18  1  1
 18 19  1  0
 19 20  1  0
 20 21  1  0
 21 22  3  0
 19 23  1  0
 23 24  2  0
 23 25  1  0
 25 26  2  0
 26 27  1  0
 27 28  2  0
 28 29  1  0
 28 30  1  0
 30 31  2  0
 17  2  1  0
 31 25  1  0
 14  5  1  0
 31 17  1  0
 14  9  1  0
  1 32  1  0
  1 33  1  0
  1 34  1  0
  2 35  1  6
  3 36  1  0
  3 37  1  0
  6 38  1  0
  8 39  1  0
 10 40  1  0
 11 41  1  0
 12 42  1  0
 13 43  1  0
 18 44  1  0
 18 45  1  0
 20 46  1  0
 20 47  1  0
 26 48  1  0
 27 49  1  0
 30 50  1  0
M  END
>  <RMSD>  (79) 
0.1823953195045513

$$$$

     RDKit          3D

 56 60  0  0  0  0  0  0  0  0999 V2000
    6.1133    4.2692   22.3567 C   0  0  0  0  0  0  0  0  0  0  0  0
    6.7093    3.2582   23.2013 N   0  0  0  0  0  0  0  0  0  0  0  0
    6.2144    3.0247   24.4350 C   0  0  0  0  0  0  0  0  0  0  0  0
    5.3361    3.7032   24.9494 O   0  0  0  0  0  0  0  0  0  0  0  0
    6.7717    1.8184   25.1991 C   0  0  0  0  0  0  0  0  0  0  0  0
    7.6674    0.9393   24.4745 N   0  0  0  0  0  0  0  0  0  0  0  0
    7.2014   -0.3873   24.1177 C   0  0  0  0  0  0  0  0  0  0  0  0
    7.9216   -0.9088   22.8483 C   0  0  2  0  0  0  0  0  0  0  0  0
    7.5385   -0.0234   21.6342 C   0  0  0  0  0  0  0  0  0  0  0  0
    8.0075    1.0560   21.3324 O   0  0  0  0  0  0  0  0  0  0  0  0
    6.5341   -0.6623   20.9366 N   0  0  0  0  0  0  0  0  0  0  0  0
    5.8824   -0.0576   19.8286 C   0  0  0  0  0  0  0  0  0  0  0  0
    6.3050   -0.3474   18.5576 C   0  0  0  0  0  0  0  0  0  0  0  0
    5.7658    0.1749   17.4273 N   0  0  0  0  0  0  0  0  0  0  0  0
    4.7636    1.0127   17.5675 C   0  0  0  0  0  0  0  0  0  0  0  0
    4.2016    1.3816   18.8251 C   0  0  0  0  0  0  0  0  0  0  0  0
    3.1167    2.2967   18.9384 C   0  0  0  0  0  0  0  0  0  0  0  0
    2.6067    2.6164   20.1686 C   0  0  0  0  0  0  0  0  0  0  0  0
    3.1452    2.0384   21.3424 C   0  0  0  0  0  0  0  0  0  0  0  0
    4.2024    1.1664   21.2598 C   0  0  0  0  0  0  0  0  0  0  0  0
    4.7657    0.8215   19.9987 C   0  0  0  0  0  0  0  0  0  0  0  0
    6.1298   -1.9301   21.5201 C   0  0  0  0  0  0  0  0  0  0  0  0
    7.3467   -2.2731   22.3863 C   0  0  2  0  0  0  0  0  0  0  0  0
    7.0541   -3.2380   23.4964 N   0  0  0  0  0  0  0  0  0  0  0  0
    9.4095   -0.8496   23.1179 C   0  0  0  0  0  0  0  0  0  0  0  0
   10.3133   -1.7748   22.5818 C   0  0  0  0  0  0  0  0  0  0  0  0
   11.6746   -1.5807   22.7417 C   0  0  0  0  0  0  0  0  0  0  0  0
   12.7726   -2.7199   22.0146 Cl  0  0  0  0  0  0  0  0  0  0  0  0
   12.1827   -0.4843   23.4417 C   0  0  0  0  0  0  0  0  0  0  0  0
   11.2919    0.4226   23.9883 C   0  0  0  0  0  0  0  0  0  0  0  0
    9.9151    0.2450   23.8382 C   0  0  0  0  0  0  0  0  0  0  0  0
    8.9951    1.2648   24.4450 C   0  0  0  0  0  0  0  0  0  0  0  0
    9.3937    2.3417   24.8695 O   0  0  0  0  0  0  0  0  0  0  0  0
    6.1382    5.2586   22.8239 H   0  0  0  0  0  0  0  0  0  0  0  0
    6.6669    4.2960   21.4167 H   0  0  0  0  0  0  0  0  0  0  0  0
    5.0700    4.0200   22.1355 H   0  0  0  0  0  0  0  0  0  0  0  0
    7.5446    2.7915   22.8760 H   0  0  0  0  0  0  0  0  0  0  0  0
    5.9040    1.2387   25.5283 H   0  0  0  0  0  0  0  0  0  0  0  0
    7.2628    2.1884   26.1061 H   0  0  0  0  0  0  0  0  0  0  0  0
    7.3625   -1.0793   24.9574 H   0  0  0  0  0  0  0  0  0  0  0  0
    6.1266   -0.3092   23.9248 H   0  0  0  0  0  0  0  0  0  0  0  0
    7.1404   -1.0278   18.4064 H   0  0  0  0  0  0  0  0  0  0  0  0
    4.3389    1.4420   16.6577 H   0  0  0  0  0  0  0  0  0  0  0  0
    2.7102    2.7445   18.0328 H   0  0  0  0  0  0  0  0  0  0  0  0
    1.7864    3.3240   20.2612 H   0  0  0  0  0  0  0  0  0  0  0  0
    2.7493    2.3117   22.3192 H   0  0  0  0  0  0  0  0  0  0  0  0
    4.6223    0.7321   22.1633 H   0  0  0  0  0  0  0  0  0  0  0  0
    5.2235   -1.8551   22.1471 H   0  0  0  0  0  0  0  0  0  0  0  0
    5.9384   -2.6689   20.7376 H   0  0  0  0  0  0  0  0  0  0  0  0
    8.0723   -2.7551   21.7435 H   0  0  0  0  0  0  0  0  0  0  0  0
    6.8178   -4.1725   23.1129 H   0  0  0  0  0  0  0  0  0  0  0  0
    6.2601   -2.8793   24.0538 H   0  0  0  0  0  0  0  0  0  0  0  0
    7.8775   -3.3229   24.1185 H   0  0  0  0  0  0  0  0  0  0  0  0
    9.9658   -2.6481   22.0402 H   0  0  0  0  0  0  0  0  0  0  0  0
   13.2575   -0.3500   23.5344 H   0  0  0  0  0  0  0  0  0  0  0  0
   11.6511    1.2863   24.5389 H   0  0  0  0  0  0  0  0  0  0  0  0
  1  2  1  0
  2  3  1  0
  3  4  2  0
  3  5  1  0
  5  6  1  0
  6  7  1  0
  8  7  1  1
  8  9  1  0
  9 10  2  0
  9 11  1  0
 11 12  1  0
 12 13  2  0
 13 14  1  0
 14 15  2  0
 15 16  1  0
 16 17  2  0
 17 18  1  0
 18 19  2  0
 19 20  1  0
 20 21  2  0
 11 22  1  0
 22 23  1  0
 23 24  1  0
  8 25  1  0
 25 26  2  0
 26 27  1  0
 27 28  1  0
 27 29  2  0
 29 30  1  0
 30 31  2  0
 31 32  1  0
 32 33  2  0
 32  6  1  0
 23  8  1  0
 31 25  1  0
 21 12  1  0
 21 16  1  0
  1 34  1  0
  1 35  1  0
  1 36  1  0
  2 37  1  0
  5 38  1  0
  5 39  1  0
  7 40  1  0
  7 41  1  0
 13 42  1  0
 15 43  1  0
 17 44  1  0
 18 45  1  0
 19 46  1  0
 20 47  1  0
 22 48  1  0
 22 49  1  0
 23 50  1  6
 24 51  1  0
 24 52  1  0
 24 53  1  0
 26 54  1  0
 29 55  1  0
 30 56  1  0
M  CHG  1  24   1
M  END
>  <RMSD>  (80) 
0.1720599537907972

$$$$

     RDKit          3D

 65 70  0  0  0  0  0  0  0  0999 V2000
    6.1130    4.2694   22.3508 C   0  0  0  0  0  0  0  0  0  0  0  0
    6.7171    3.2600   23.1981 N   0  0  0  0  0  0  0  0  0  0  0  0
    6.2209    3.0173   24.4282 C   0  0  0  0  0  0  0  0  0  0  0  0
    5.3370    3.6981   24.9424 O   0  0  0  0  0  0  0  0  0  0  0  0
    6.7833    1.8140   25.1974 C   0  0  0  0  0  0  0  0  0  0  0  0
    7.6797    0.9309   24.4807 N   0  0  0  0  0  0  0  0  0  0  0  0
    7.2058   -0.3912   24.1132 C   0  0  0  0  0  0  0  0  0  0  0  0
    7.9194   -0.9197   22.8439 C   0  0  2  0  0  0  0  0  0  0  0  0
    7.5348   -0.0317   21.6288 C   0  0  0  0  0  0  0  0  0  0  0  0
    8.0008    1.0477   21.3198 O   0  0  0  0  0  0  0  0  0  0  0  0
    6.5247   -0.6683   20.9381 N   0  0  0  0  0  0  0  0  0  0  0  0
    5.8822   -0.0600   19.8265 C   0  0  0  0  0  0  0  0  0  0  0  0
    6.3073   -0.3427   18.5546 C   0  0  0  0  0  0  0  0  0  0  0  0
    5.7642    0.1790   17.4238 N   0  0  0  0  0  0  0  0  0  0  0  0
    4.7605    1.0127   17.5701 C   0  0  0  0  0  0  0  0  0  0  0  0
    4.2039    1.3856   18.8287 C   0  0  0  0  0  0  0  0  0  0  0  0
    3.1164    2.2951   18.9417 C   0  0  0  0  0  0  0  0  0  0  0  0
    2.6033    2.6140   20.1698 C   0  0  0  0  0  0  0  0  0  0  0  0
    3.1455    2.0386   21.3427 C   0  0  0  0  0  0  0  0  0  0  0  0
    4.2046    1.1685   21.2597 C   0  0  0  0  0  0  0  0  0  0  0  0
    4.7716    0.8265   20.0005 C   0  0  0  0  0  0  0  0  0  0  0  0
    6.1271   -1.9383   21.5152 C   0  0  0  0  0  0  0  0  0  0  0  0
    7.3438   -2.2917   22.3805 C   0  0  2  0  0  0  0  0  0  0  0  0
    7.0391   -3.3246   23.4796 C   0  0  0  0  0  0  0  0  0  0  0  0
    6.7264   -4.6519   22.9767 N   0  0  0  0  0  0  0  0  0  0  0  0
    5.4905   -5.0839   22.6639 C   0  0  0  0  0  0  0  0  0  0  0  0
    4.4265   -4.3288   23.0033 N   0  0  0  0  0  0  0  0  0  0  0  0
    3.2604   -4.8728   22.6781 C   0  0  0  0  0  0  0  0  0  0  0  0
    3.0630   -6.0146   22.0261 N   0  0  0  0  0  0  0  0  0  0  0  0
    4.1956   -6.6682   21.7424 C   0  0  0  0  0  0  0  0  0  0  0  0
    5.4238   -6.2799   22.0282 N   0  0  0  0  0  0  0  0  0  0  0  0
    9.4106   -0.8514   23.1081 C   0  0  0  0  0  0  0  0  0  0  0  0
   10.3167   -1.7747   22.5743 C   0  0  0  0  0  0  0  0  0  0  0  0
   11.6782   -1.5814   22.7283 C   0  0  0  0  0  0  0  0  0  0  0  0
   12.7824   -2.7207   22.0068 Cl  0  0  0  0  0  0  0  0  0  0  0  0
   12.1876   -0.4858   23.4271 C   0  0  0  0  0  0  0  0  0  0  0  0
   11.2970    0.4189   23.9754 C   0  0  0  0  0  0  0  0  0  0  0  0
    9.9222    0.2419   23.8266 C   0  0  0  0  0  0  0  0  0  0  0  0
    9.0071    1.2588   24.4464 C   0  0  0  0  0  0  0  0  0  0  0  0
    9.4068    2.3346   24.8770 O   0  0  0  0  0  0  0  0  0  0  0  0
    6.1375    5.2582   22.8224 H   0  0  0  0  0  0  0  0  0  0  0  0
    6.6711    4.2953   21.4110 H   0  0  0  0  0  0  0  0  0  0  0  0
    5.0675    4.0160   22.1338 H   0  0  0  0  0  0  0  0  0  0  0  0
    7.5205    2.7550   22.8503 H   0  0  0  0  0  0  0  0  0  0  0  0
    5.9111    1.2420   25.5281 H   0  0  0  0  0  0  0  0  0  0  0  0
    7.2805    2.1995   26.0947 H   0  0  0  0  0  0  0  0  0  0  0  0
    7.3685   -1.0955   24.9424 H   0  0  0  0  0  0  0  0  0  0  0  0
    6.1289   -0.3171   23.9235 H   0  0  0  0  0  0  0  0  0  0  0  0
    7.1399   -1.0275   18.4056 H   0  0  0  0  0  0  0  0  0  0  0  0
    4.3390    1.4384   16.6582 H   0  0  0  0  0  0  0  0  0  0  0  0
    2.7160    2.7370   18.0316 H   0  0  0  0  0  0  0  0  0  0  0  0
    1.7851    3.3239   20.2595 H   0  0  0  0  0  0  0  0  0  0  0  0
    2.7487    2.3147   22.3179 H   0  0  0  0  0  0  0  0  0  0  0  0
    4.6239    0.7322   22.1624 H   0  0  0  0  0  0  0  0  0  0  0  0
    5.9180   -2.6761   20.7367 H   0  0  0  0  0  0  0  0  0  0  0  0
    5.2158   -1.8526   22.1297 H   0  0  0  0  0  0  0  0  0  0  0  0
    8.0899   -2.7202   21.7031 H   0  0  0  0  0  0  0  0  0  0  0  0
    7.9162   -3.4267   24.1240 H   0  0  0  0  0  0  0  0  0  0  0  0
    6.1882   -3.0028   24.0931 H   0  0  0  0  0  0  0  0  0  0  0  0
    7.4635   -5.2554   22.6433 H   0  0  0  0  0  0  0  0  0  0  0  0
    2.3579   -4.3387   22.9778 H   0  0  0  0  0  0  0  0  0  0  0  0
    4.0662   -7.6191   21.2242 H   0  0  0  0  0  0  0  0  0  0  0  0
    9.9685   -2.6498   22.0377 H   0  0  0  0  0  0  0  0  0  0  0  0
   13.2601   -0.3512   23.5246 H   0  0  0  0  0  0  0  0  0  0  0  0
   11.6399    1.2882   24.5264 H   0  0  0  0  0  0  0  0  0  0  0  0
  1  2  1  0
  2  3  1  0
  3  4  2  0
  3  5  1  0
  5  6  1  0
  6  7  1  0
  8  7  1  1
  8  9  1  0
  9 10  2  0
  9 11  1  0
 11 12  1  0
 12 13  2  0
 13 14  1  0
 14 15  2  0
 15 16  1  0
 16 17  2  0
 17 18  1  0
 18 19  2  0
 19 20  1  0
 20 21  2  0
 11 22  1  0
 22 23  1  0
 23 24  1  0
 24 25  1  0
 25 26  1  0
 26 27  2  0
 27 28  1  0
 28 29  2  0
 29 30  1  0
 30 31  2  0
  8 32  1  0
 32 33  2  0
 33 34  1  0
 34 35  1  0
 34 36  2  0
 36 37  1  0
 37 38  2  0
 38 39  1  0
 39 40  2  0
 39  6  1  0
 23  8  1  0
 31 26  1  0
 38 32  1  0
 21 12  1  0
 21 16  1  0
  1 41  1  0
  1 42  1  0
  1 43  1  0
  2 44  1  0
  5 45  1  0
  5 46  1  0
  7 47  1  0
  7 48  1  0
 13 49  1  0
 15 50  1  0
 17 51  1  0
 18 52  1  0
 19 53  1  0
 20 54  1  0
 22 55  1  0
 22 56  1  0
 23 57  1  6
 24 58  1  0
 24 59  1  0
 25 60  1  0
 28 61  1  0
 30 62  1  0
 33 63  1  0
 36 64  1  0
 37 65  1  0
M  END
>  <RMSD>  (81) 
0.17487316769399214

$$$$

     RDKit          3D

 58 63  0  0  0  0  0  0  0  0999 V2000
    3.8640    5.3789   23.0635 C   0  0  0  0  0  0  0  0  0  0  0  0
    4.9459    4.3998   23.3633 C   0  0  0  0  0  0  0  0  0  0  0  0
    5.0074    3.5562   24.4988 C   0  0  0  0  0  0  0  0  0  0  0  0
    6.1563    2.8609   24.3102 C   0  0  0  0  0  0  0  0  0  0  0  0
    6.7797    1.8176   25.1834 C   0  0  0  0  0  0  0  0  0  0  0  0
    7.6880    0.9370   24.4944 N   0  0  0  0  0  0  0  0  0  0  0  0
    7.2116   -0.3814   24.1145 C   0  0  0  0  0  0  0  0  0  0  0  0
    7.9252   -0.9101   22.8434 C   0  0  2  0  0  0  0  0  0  0  0  0
    7.5446   -0.0229   21.6266 C   0  0  0  0  0  0  0  0  0  0  0  0
    8.0098    1.0472   21.3106 O   0  0  0  0  0  0  0  0  0  0  0  0
    6.5295   -0.6602   20.9415 N   0  0  0  0  0  0  0  0  0  0  0  0
    5.8824   -0.0576   19.8309 C   0  0  0  0  0  0  0  0  0  0  0  0
    6.3050   -0.3459   18.5587 C   0  0  0  0  0  0  0  0  0  0  0  0
    5.7643    0.1753   17.4279 N   0  0  0  0  0  0  0  0  0  0  0  0
    4.7612    1.0126   17.5672 C   0  0  0  0  0  0  0  0  0  0  0  0
    4.1999    1.3815   18.8252 C   0  0  0  0  0  0  0  0  0  0  0  0
    3.1165    2.2971   18.9396 C   0  0  0  0  0  0  0  0  0  0  0  0
    2.6117    2.6212   20.1694 C   0  0  0  0  0  0  0  0  0  0  0  0
    3.1573    2.0475   21.3424 C   0  0  0  0  0  0  0  0  0  0  0  0
    4.2068    1.1679   21.2601 C   0  0  0  0  0  0  0  0  0  0  0  0
    4.7632    0.8200   19.9993 C   0  0  0  0  0  0  0  0  0  0  0  0
    6.1379   -1.9264   21.5315 C   0  0  0  0  0  0  0  0  0  0  0  0
    7.3533   -2.2835   22.3973 C   0  0  2  0  0  0  0  0  0  0  0  0
    7.0641   -3.2855   23.5070 C   0  0  0  0  0  0  0  0  0  0  0  0
    9.4120   -0.8427   23.1156 C   0  0  0  0  0  0  0  0  0  0  0  0
   10.3138   -1.7707   22.5854 C   0  0  0  0  0  0  0  0  0  0  0  0
   11.6682   -1.5671   22.7536 C   0  0  0  0  0  0  0  0  0  0  0  0
   12.5174   -2.4568   22.2115 F   0  0  0  0  0  0  0  0  0  0  0  0
   12.1909   -0.4752   23.4389 C   0  0  0  0  0  0  0  0  0  0  0  0
   11.2986    0.4329   23.9764 C   0  0  0  0  0  0  0  0  0  0  0  0
    9.9209    0.2616   23.8219 C   0  0  0  0  0  0  0  0  0  0  0  0
    9.0080    1.2908   24.4281 C   0  0  0  0  0  0  0  0  0  0  0  0
    9.4188    2.3558   24.8617 O   0  0  0  0  0  0  0  0  0  0  0  0
    6.7406    3.2316   23.1724 O   0  0  0  0  0  0  0  0  0  0  0  0
    5.9805    4.2151   22.5693 N   0  0  0  0  0  0  0  0  0  0  0  0
    4.1947    6.1554   22.3746 H   0  0  0  0  0  0  0  0  0  0  0  0
    3.0084    4.8631   22.6206 H   0  0  0  0  0  0  0  0  0  0  0  0
    3.5043    5.8366   23.9869 H   0  0  0  0  0  0  0  0  0  0  0  0
    4.3092    3.4791   25.3248 H   0  0  0  0  0  0  0  0  0  0  0  0
    5.9642    1.2344   25.6178 H   0  0  0  0  0  0  0  0  0  0  0  0
    7.2963    2.2934   26.0225 H   0  0  0  0  0  0  0  0  0  0  0  0
    6.1342   -0.3113   23.9271 H   0  0  0  0  0  0  0  0  0  0  0  0
    7.3715   -1.0748   24.9512 H   0  0  0  0  0  0  0  0  0  0  0  0
    7.1403   -1.0264   18.4079 H   0  0  0  0  0  0  0  0  0  0  0  0
    4.3356    1.4407   16.6573 H   0  0  0  0  0  0  0  0  0  0  0  0
    2.7078    2.7443   18.0344 H   0  0  0  0  0  0  0  0  0  0  0  0
    1.7854    3.3260   20.2534 H   0  0  0  0  0  0  0  0  0  0  0  0
    2.7423    2.2982   22.3159 H   0  0  0  0  0  0  0  0  0  0  0  0
    4.6276    0.7255   22.1602 H   0  0  0  0  0  0  0  0  0  0  0  0
    5.9458   -2.6687   20.7544 H   0  0  0  0  0  0  0  0  0  0  0  0
    5.2300   -1.8513   22.1534 H   0  0  0  0  0  0  0  0  0  0  0  0
    8.0792   -2.7328   21.7154 H   0  0  0  0  0  0  0  0  0  0  0  0
    6.2433   -2.9448   24.1435 H   0  0  0  0  0  0  0  0  0  0  0  0
    7.9333   -3.4304   24.1563 H   0  0  0  0  0  0  0  0  0  0  0  0
    6.7838   -4.2619   23.1017 H   0  0  0  0  0  0  0  0  0  0  0  0
    9.9829   -2.6516   22.0450 H   0  0  0  0  0  0  0  0  0  0  0  0
   13.2672   -0.3535   23.5257 H   0  0  0  0  0  0  0  0  0  0  0  0
   11.6602    1.2938   24.5273 H   0  0  0  0  0  0  0  0  0  0  0  0
  1  2  1  0
  2  3  1  0
  3  4  2  0
  4  5  1  0
  5  6  1  0
  6  7  1  0
  8  7  1  1
  8  9  1  0
  9 10  2  0
  9 11  1  0
 11 12  1  0
 12 13  2  0
 13 14  1  0
 14 15  2  0
 15 16  1  0
 16 17  2  0
 17 18  1  0
 18 19  2  0
 19 20  1  0
 20 21  2  0
 11 22  1  0
 22 23  1  0
 23 24  1  0
  8 25  1  0
 25 26  2  0
 26 27  1  0
 27 28  1  0
 27 29  2  0
 29 30  1  0
 30 31  2  0
 31 32  1  0
 32 33  2  0
  4 34  1  0
 34 35  1  0
 35  2  2  0
 32  6  1  0
 23  8  1  0
 31 25  1  0
 21 12  1  0
 21 16  1  0
  1 36  1  0
  1 37  1  0
  1 38  1  0
  3 39  1  0
  5 40  1  0
  5 41  1  0
  7 42  1  0
  7 43  1  0
 13 44  1  0
 15 45  1  0
 17 46  1  0
 18 47  1  0
 19 48  1  0
 20 49  1  0
 22 50  1  0
 22 51  1  0
 23 52  1  6
 24 53  1  0
 24 54  1  0
 24 55  1  0
 26 56  1  0
 29 57  1  0
 30 58  1  0
M  END
>  <RMSD>  (82) 
0.1723652800147993

$$$$

     RDKit          3D

 72 77  0  0  0  0  0  0  0  0999 V2000
    6.1733    4.1479   22.3071 C   0  0  0  0  0  0  0  0  0  0  0  0
    6.8607    3.1427   23.1367 N   0  0  0  0  0  0  0  0  0  0  0  0
    6.1825    2.9222   24.4372 C   0  0  0  0  0  0  0  0  0  0  0  0
    6.7677    1.7720   25.2937 C   0  0  0  0  0  0  0  0  0  0  0  0
    7.6538    0.8588   24.5944 N   0  0  0  0  0  0  0  0  0  0  0  0
    7.1753   -0.4409   24.1632 C   0  0  0  0  0  0  0  0  0  0  0  0
    7.8755   -0.9098   22.8561 C   0  0  2  0  0  0  0  0  0  0  0  0
    7.4051   -0.0011   21.6976 C   0  0  0  0  0  0  0  0  0  0  0  0
    7.7022    1.1767   21.5178 O   0  0  0  0  0  0  0  0  0  0  0  0
    6.5033   -0.6816   20.9318 N   0  0  0  0  0  0  0  0  0  0  0  0
    5.8640   -0.0779   19.8165 C   0  0  0  0  0  0  0  0  0  0  0  0
    6.3010   -0.3519   18.5449 C   0  0  0  0  0  0  0  0  0  0  0  0
    5.7729    0.1894   17.4178 N   0  0  0  0  0  0  0  0  0  0  0  0
    4.7710    1.0228   17.5738 C   0  0  0  0  0  0  0  0  0  0  0  0
    4.2158    1.3891   18.8340 C   0  0  0  0  0  0  0  0  0  0  0  0
    3.1229    2.2916   18.9450 C   0  0  0  0  0  0  0  0  0  0  0  0
    2.6053    2.6090   20.1693 C   0  0  0  0  0  0  0  0  0  0  0  0
    3.1537    2.0499   21.3448 C   0  0  0  0  0  0  0  0  0  0  0  0
    4.2176    1.1834   21.2666 C   0  0  0  0  0  0  0  0  0  0  0  0
    4.7766    0.8281   20.0043 C   0  0  0  0  0  0  0  0  0  0  0  0
    6.1073   -1.9455   21.5145 C   0  0  0  0  0  0  0  0  0  0  0  0
    7.3422   -2.2799   22.3642 C   0  0  2  0  0  0  0  0  0  0  0  0
    7.0838   -3.3268   23.4352 C   0  0  0  0  0  0  0  0  0  0  0  0
    6.7243   -4.5495   22.8245 O   0  0  0  0  0  0  0  0  0  0  0  0
    5.4424   -5.0381   23.1806 C   0  0  0  0  0  0  0  0  0  0  0  0
    5.2297   -6.3041   22.3768 C   0  0  0  0  0  0  0  0  0  0  0  0
    3.8098   -6.8699   22.5348 C   0  0  0  0  0  0  0  0  0  0  0  0
    3.3957   -6.5419   20.7645 S   0  0  0  0  0  0  0  0  0  0  0  0
    5.3852   -4.7755   20.3937 O   0  0  0  0  0  0  0  0  0  0  0  0
    3.3316   -7.7573   19.9073 O   0  0  0  0  0  0  0  0  0  0  0  0
    5.1577   -6.0690   20.8441 C   0  0  0  0  0  0  0  0  0  0  0  0
    9.3729   -0.8210   23.0835 C   0  0  0  0  0  0  0  0  0  0  0  0
   10.2981   -1.7396   22.5649 C   0  0  0  0  0  0  0  0  0  0  0  0
   11.6534   -1.5412   22.7600 C   0  0  0  0  0  0  0  0  0  0  0  0
   12.7832   -2.6973   22.1097 Cl  0  0  0  0  0  0  0  0  0  0  0  0
   12.1459   -0.4411   23.4599 C   0  0  0  0  0  0  0  0  0  0  0  0
   11.2412    0.4637   23.9780 C   0  0  0  0  0  0  0  0  0  0  0  0
    9.8721    0.2717   23.8096 C   0  0  0  0  0  0  0  0  0  0  0  0
    8.9398    1.2646   24.4290 C   0  0  0  0  0  0  0  0  0  0  0  0
    9.2947    2.3981   24.7502 O   0  0  0  0  0  0  0  0  0  0  0  0
    6.6287    4.1972   21.3160 H   0  0  0  0  0  0  0  0  0  0  0  0
    5.1216    3.8696   22.1892 H   0  0  0  0  0  0  0  0  0  0  0  0
    6.2067    5.1390   22.7695 H   0  0  0  0  0  0  0  0  0  0  0  0
    7.8423    3.4113   23.3016 H   0  0  0  0  0  0  0  0  0  0  0  0
    6.9053    2.2623   22.6012 H   0  0  0  0  0  0  0  0  0  0  0  0
    5.1220    2.7336   24.2364 H   0  0  0  0  0  0  0  0  0  0  0  0
    6.2192    3.8476   25.0238 H   0  0  0  0  0  0  0  0  0  0  0  0
    5.9411    1.1916   25.7181 H   0  0  0  0  0  0  0  0  0  0  0  0
    7.3249    2.1893   26.1377 H   0  0  0  0  0  0  0  0  0  0  0  0
    6.0926   -0.3619   24.0098 H   0  0  0  0  0  0  0  0  0  0  0  0
    7.3614   -1.1828   24.9504 H   0  0  0  0  0  0  0  0  0  0  0  0
    7.1420   -1.0289   18.3976 H   0  0  0  0  0  0  0  0  0  0  0  0
    4.3354    1.4517   16.6704 H   0  0  0  0  0  0  0  0  0  0  0  0
    2.7157    2.7179   18.0316 H   0  0  0  0  0  0  0  0  0  0  0  0
    1.7698    3.2987   20.2490 H   0  0  0  0  0  0  0  0  0  0  0  0
    2.7437    2.3208   22.3156 H   0  0  0  0  0  0  0  0  0  0  0  0
    4.6262    0.7552   22.1781 H   0  0  0  0  0  0  0  0  0  0  0  0
    5.8648   -2.6553   20.7229 H   0  0  0  0  0  0  0  0  0  0  0  0
    5.2039   -1.8510   22.1436 H   0  0  0  0  0  0  0  0  0  0  0  0
    8.0788   -2.6800   21.6650 H   0  0  0  0  0  0  0  0  0  0  0  0
    6.2833   -2.9920   24.1132 H   0  0  0  0  0  0  0  0  0  0  0  0
    7.9856   -3.4790   24.0438 H   0  0  0  0  0  0  0  0  0  0  0  0
    5.3803   -5.2604   24.2595 H   0  0  0  0  0  0  0  0  0  0  0  0
    4.6674   -4.2823   22.9548 H   0  0  0  0  0  0  0  0  0  0  0  0
    6.0236   -7.0196   22.6113 H   0  0  0  0  0  0  0  0  0  0  0  0
    3.1507   -6.2817   23.1778 H   0  0  0  0  0  0  0  0  0  0  0  0
    3.7238   -7.9205   22.7938 H   0  0  0  0  0  0  0  0  0  0  0  0
    6.2246   -4.5126   20.8176 H   0  0  0  0  0  0  0  0  0  0  0  0
    5.7110   -6.8175   20.2678 H   0  0  0  0  0  0  0  0  0  0  0  0
    9.9864   -2.6171   22.0103 H   0  0  0  0  0  0  0  0  0  0  0  0
   13.2152   -0.3118   23.5938 H   0  0  0  0  0  0  0  0  0  0  0  0
   11.5766    1.3353   24.5288 H   0  0  0  0  0  0  0  0  0  0  0  0
  1  2  1  0
  2  3  1  0
  3  4  1  0
  4  5  1  0
  5  6  1  0
  7  6  1  1
  7  8  1  0
  8  9  2  0
  8 10  1  0
 10 11  1  0
 11 12  2  0
 12 13  1  0
 13 14  2  0
 14 15  1  0
 15 16  2  0
 16 17  1  0
 17 18  2  0
 18 19  1  0
 19 20  2  0
 10 21  1  0
 21 22  1  0
 22 23  1  0
 23 24  1  0
 24 25  1  0
 25 26  1  0
 26 27  1  0
 27 28  1  0
 28 29  2  0
 28 30  2  0
 28 31  1  0
  7 32  1  0
 32 33  2  0
 33 34  1  0
 34 35  1  0
 34 36  2  0
 36 37  1  0
 37 38  2  0
 38 39  1  0
 39 40  2  0
 39  5  1  0
 22  7  1  0
 31 26  1  0
 38 32  1  0
 20 11  1  0
 20 15  1  0
  1 41  1  0
  1 42  1  0
  1 43  1  0
  2 44  1  0
  2 45  1  0
  3 46  1  0
  3 47  1  0
  4 48  1  0
  4 49  1  0
  6 50  1  0
  6 51  1  0
 12 52  1  0
 14 53  1  0
 16 54  1  0
 17 55  1  0
 18 56  1  0
 19 57  1  0
 21 58  1  0
 21 59  1  0
 22 60  1  6
 23 61  1  0
 23 62  1  0
 25 63  1  0
 25 64  1  0
 26 65  1  0
 27 66  1  0
 27 67  1  0
 31 68  1  0
 31 69  1  0
 33 70  1  0
 36 71  1  0
 37 72  1  0
M  CHG  1   2   1
M  END
>  <RMSD>  (83) 
0.18071259953358237

$$$$

     RDKit          3D

 70 75  0  0  0  0  0  0  0  0999 V2000
    6.1984    4.0959   22.3204 C   0  0  0  0  0  0  0  0  0  0  0  0
    6.8534    3.1783   23.2558 N   0  0  0  0  0  0  0  0  0  0  0  0
    6.0528    2.9682   24.4881 C   0  0  0  0  0  0  0  0  0  0  0  0
    6.6828    1.9164   25.4206 C   0  0  0  0  0  0  0  0  0  0  0  0
    7.5382    0.9805   24.7113 N   0  0  0  0  0  0  0  0  0  0  0  0
    7.0050   -0.2951   24.2921 C   0  0  0  0  0  0  0  0  0  0  0  0
    7.6914   -0.8704   23.0246 C   0  0  2  0  0  0  0  0  0  0  0  0
    7.3254   -0.0166   21.7929 C   0  0  0  0  0  0  0  0  0  0  0  0
    7.6668    1.1467   21.6099 O   0  0  0  0  0  0  0  0  0  0  0  0
    6.5084   -0.7152   20.9460 N   0  0  0  0  0  0  0  0  0  0  0  0
    5.8745   -0.0802   19.8316 C   0  0  0  0  0  0  0  0  0  0  0  0
    6.3002   -0.3497   18.5574 C   0  0  0  0  0  0  0  0  0  0  0  0
    5.7689    0.1920   17.4312 N   0  0  0  0  0  0  0  0  0  0  0  0
    4.7663    1.0281   17.5740 C   0  0  0  0  0  0  0  0  0  0  0  0
    4.2115    1.3875   18.8334 C   0  0  0  0  0  0  0  0  0  0  0  0
    3.1156    2.2883   18.9381 C   0  0  0  0  0  0  0  0  0  0  0  0
    2.5946    2.6052   20.1651 C   0  0  0  0  0  0  0  0  0  0  0  0
    3.1501    2.0435   21.3363 C   0  0  0  0  0  0  0  0  0  0  0  0
    4.2200    1.1857   21.2632 C   0  0  0  0  0  0  0  0  0  0  0  0
    4.7807    0.8276   20.0033 C   0  0  0  0  0  0  0  0  0  0  0  0
    6.0379   -1.9605   21.5297 C   0  0  0  0  0  0  0  0  0  0  0  0
    7.0550   -2.2491   22.6590 C   0  0  2  0  0  0  0  0  0  0  0  0
    6.4030   -3.0227   23.8274 C   0  0  0  0  0  0  0  0  0  0  0  0
    5.9415   -4.3121   23.4613 O   0  0  0  0  0  0  0  0  0  0  0  0
    6.8620   -5.3448   23.7573 C   0  0  0  0  0  0  0  0  0  0  0  0
    6.6658   -6.4963   22.7969 C   0  0  0  0  0  0  0  0  0  0  0  0
    5.2919   -7.1446   22.5641 C   0  0  0  0  0  0  0  0  0  0  0  0
    5.3097   -6.7802   21.1752 O   0  0  0  0  0  0  0  0  0  0  0  0
    6.5439   -6.0713   21.3377 C   0  0  0  0  0  0  0  0  0  0  0  0
    9.1986   -0.8110   23.2626 C   0  0  0  0  0  0  0  0  0  0  0  0
   10.1020   -1.7409   22.7252 C   0  0  0  0  0  0  0  0  0  0  0  0
   11.4626   -1.5807   22.9416 C   0  0  0  0  0  0  0  0  0  0  0  0
   12.5654   -2.7723   22.3142 Cl  0  0  0  0  0  0  0  0  0  0  0  0
   11.9818   -0.4895   23.6357 C   0  0  0  0  0  0  0  0  0  0  0  0
   11.1009    0.4565   24.1216 C   0  0  0  0  0  0  0  0  0  0  0  0
    9.7283    0.2983   23.9485 C   0  0  0  0  0  0  0  0  0  0  0  0
    8.8252    1.3514   24.5023 C   0  0  0  0  0  0  0  0  0  0  0  0
    9.2114    2.4982   24.7456 O   0  0  0  0  0  0  0  0  0  0  0  0
    5.1625    3.7823   22.1532 H   0  0  0  0  0  0  0  0  0  0  0  0
    6.7044    4.0909   21.3542 H   0  0  0  0  0  0  0  0  0  0  0  0
    6.1874    5.1120   22.7259 H   0  0  0  0  0  0  0  0  0  0  0  0
    7.7815    3.5289   23.5433 H   0  0  0  0  0  0  0  0  0  0  0  0
    7.0381    2.2803   22.7735 H   0  0  0  0  0  0  0  0  0  0  0  0
    5.0368    2.6589   24.2069 H   0  0  0  0  0  0  0  0  0  0  0  0
    5.9540    3.9213   25.0238 H   0  0  0  0  0  0  0  0  0  0  0  0
    5.9023    1.3501   25.9403 H   0  0  0  0  0  0  0  0  0  0  0  0
    7.2980    2.3821   26.1943 H   0  0  0  0  0  0  0  0  0  0  0  0
    5.9346   -0.1635   24.0848 H   0  0  0  0  0  0  0  0  0  0  0  0
    7.1413   -1.0167   25.1061 H   0  0  0  0  0  0  0  0  0  0  0  0
    7.1305   -1.0318   18.3835 H   0  0  0  0  0  0  0  0  0  0  0  0
    4.3431    1.4682   16.6676 H   0  0  0  0  0  0  0  0  0  0  0  0
    2.7114    2.7260   18.0298 H   0  0  0  0  0  0  0  0  0  0  0  0
    1.7589    3.2936   20.2490 H   0  0  0  0  0  0  0  0  0  0  0  0
    2.7464    2.3182   22.3087 H   0  0  0  0  0  0  0  0  0  0  0  0
    4.6557    0.7808   22.1730 H   0  0  0  0  0  0  0  0  0  0  0  0
    5.0288   -1.8551   21.9620 H   0  0  0  0  0  0  0  0  0  0  0  0
    6.0087   -2.7527   20.7743 H   0  0  0  0  0  0  0  0  0  0  0  0
    7.8319   -2.8896   22.2431 H   0  0  0  0  0  0  0  0  0  0  0  0
    5.5122   -2.4845   24.1677 H   0  0  0  0  0  0  0  0  0  0  0  0
    7.0861   -3.1214   24.6844 H   0  0  0  0  0  0  0  0  0  0  0  0
    6.7690   -5.6857   24.8014 H   0  0  0  0  0  0  0  0  0  0  0  0
    7.8748   -4.9391   23.6211 H   0  0  0  0  0  0  0  0  0  0  0  0
    7.4258   -7.2602   22.9764 H   0  0  0  0  0  0  0  0  0  0  0  0
    4.4449   -6.7137   23.1095 H   0  0  0  0  0  0  0  0  0  0  0  0
    5.2720   -8.2335   22.6753 H   0  0  0  0  0  0  0  0  0  0  0  0
    7.3402   -6.4008   20.6666 H   0  0  0  0  0  0  0  0  0  0  0  0
    6.3967   -4.9951   21.2060 H   0  0  0  0  0  0  0  0  0  0  0  0
    9.7695   -2.5725   22.1121 H   0  0  0  0  0  0  0  0  0  0  0  0
   13.0546   -0.3784   23.7643 H   0  0  0  0  0  0  0  0  0  0  0  0
   11.4574    1.3409   24.6402 H   0  0  0  0  0  0  0  0  0  0  0  0
  1  2  1  0
  2  3  1  0
  3  4  1  0
  4  5  1  0
  5  6  1  0
  7  6  1  1
  7  8  1  0
  8  9  2  0
  8 10  1  0
 10 11  1  0
 11 12  2  0
 12 13  1  0
 13 14  2  0
 14 15  1  0
 15 16  2  0
 16 17  1  0
 17 18  2  0
 18 19  1  0
 19 20  2  0
 10 21  1  0
 21 22  1  0
 22 23  1  0
 23 24  1  0
 24 25  1  0
 25 26  1  0
 26 27  1  0
 27 28  1  0
 28 29  1  0
  7 30  1  0
 30 31  2  0
 31 32  1  0
 32 33  1  0
 32 34  2  0
 34 35  1  0
 35 36  2  0
 36 37  1  0
 37 38  2  0
 37  5  1  0
 22  7  1  0
 29 26  1  0
 36 30  1  0
 20 11  1  0
 20 15  1  0
  1 39  1  0
  1 40  1  0
  1 41  1  0
  2 42  1  0
  2 43  1  0
  3 44  1  0
  3 45  1  0
  4 46  1  0
  4 47  1  0
  6 48  1  0
  6 49  1  0
 12 50  1  0
 14 51  1  0
 16 52  1  0
 17 53  1  0
 18 54  1  0
 19 55  1  0
 21 56  1  0
 21 57  1  0
 22 58  1  6
 23 59  1  0
 23 60  1  0
 25 61  1  0
 25 62  1  0
 26 63  1  0
 27 64  1  0
 27 65  1  0
 29 66  1  0
 29 67  1  0
 31 68  1  0
 34 69  1  0
 35 70  1  0
M  CHG  1   2   1
M  END
>  <RMSD>  (84) 
0.1874417470607311

$$$$
